* NGSPICE file created from heichips25_ethernet.ext - technology: ihp-sg13g2

* Black-box entry subcircuit for sg13g2_decap_8 abstract view
.subckt sg13g2_decap_8 VDD VSS
.ends

* Black-box entry subcircuit for sg13g2_fill_1 abstract view
.subckt sg13g2_fill_1 VDD VSS
.ends

* Black-box entry subcircuit for sg13g2_a21oi_1 abstract view
.subckt sg13g2_a21oi_1 VSS VDD A1 A2 Y B1
.ends

* Black-box entry subcircuit for sg13g2_mux2_1 abstract view
.subckt sg13g2_mux2_1 A0 A1 S X VDD VSS
.ends

* Black-box entry subcircuit for sg13g2_nand2_1 abstract view
.subckt sg13g2_nand2_1 Y A B VDD VSS
.ends

* Black-box entry subcircuit for sg13g2_dlygate4sd3_1 abstract view
.subckt sg13g2_dlygate4sd3_1 A VDD VSS X
.ends

* Black-box entry subcircuit for sg13g2_nand2b_1 abstract view
.subckt sg13g2_nand2b_1 Y B A_N VDD VSS
.ends

* Black-box entry subcircuit for sg13g2_nor2_1 abstract view
.subckt sg13g2_nor2_1 A B Y VDD VSS
.ends

* Black-box entry subcircuit for sg13g2_fill_2 abstract view
.subckt sg13g2_fill_2 VDD VSS
.ends

* Black-box entry subcircuit for sg13g2_buf_8 abstract view
.subckt sg13g2_buf_8 A X VDD VSS
.ends

* Black-box entry subcircuit for sg13g2_and3_1 abstract view
.subckt sg13g2_and3_1 X A B C VDD VSS
.ends

* Black-box entry subcircuit for sg13g2_dfrbpq_1 abstract view
.subckt sg13g2_dfrbpq_1 RESET_B VSS VDD D Q CLK
.ends

* Black-box entry subcircuit for sg13g2_xor2_1 abstract view
.subckt sg13g2_xor2_1 B A X VDD VSS
.ends

* Black-box entry subcircuit for sg13g2_tielo abstract view
.subckt sg13g2_tielo VDD VSS L_LO
.ends

* Black-box entry subcircuit for sg13g2_nor2b_1 abstract view
.subckt sg13g2_nor2b_1 A B_N Y VDD VSS
.ends

* Black-box entry subcircuit for sg13g2_a221oi_1 abstract view
.subckt sg13g2_a221oi_1 VDD VSS B2 C1 B1 A1 Y A2
.ends

* Black-box entry subcircuit for sg13g2_inv_1 abstract view
.subckt sg13g2_inv_1 VDD Y A VSS
.ends

* Black-box entry subcircuit for sg13g2_buf_1 abstract view
.subckt sg13g2_buf_1 A X VDD VSS
.ends

* Black-box entry subcircuit for sg13g2_a22oi_1 abstract view
.subckt sg13g2_a22oi_1 Y B1 B2 A2 A1 VDD VSS
.ends

* Black-box entry subcircuit for sg13g2_and2_1 abstract view
.subckt sg13g2_and2_1 A B X VDD VSS
.ends

* Black-box entry subcircuit for sg13g2_nor4_1 abstract view
.subckt sg13g2_nor4_1 A B C D Y VDD VSS
.ends

* Black-box entry subcircuit for sg13g2_decap_4 abstract view
.subckt sg13g2_decap_4 VDD VSS
.ends

* Black-box entry subcircuit for sg13g2_o21ai_1 abstract view
.subckt sg13g2_o21ai_1 B1 VDD Y VSS A1 A2
.ends

* Black-box entry subcircuit for sg13g2_nand3_1 abstract view
.subckt sg13g2_nand3_1 B C A Y VDD VSS
.ends

* Black-box entry subcircuit for sg13g2_a21o_1 abstract view
.subckt sg13g2_a21o_1 A2 A1 B1 X VDD VSS
.ends

* Black-box entry subcircuit for sg13g2_nor3_1 abstract view
.subckt sg13g2_nor3_1 A B C Y VDD VSS
.ends

* Black-box entry subcircuit for sg13g2_buf_16 abstract view
.subckt sg13g2_buf_16 X A VDD VSS
.ends

* Black-box entry subcircuit for sg13g2_nand4_1 abstract view
.subckt sg13g2_nand4_1 B C A Y VDD VSS D
.ends

* Black-box entry subcircuit for sg13g2_and4_1 abstract view
.subckt sg13g2_and4_1 A B C D X VDD VSS
.ends

* Black-box entry subcircuit for sg13g2_or2_1 abstract view
.subckt sg13g2_or2_1 VSS VDD X B A
.ends

* Black-box entry subcircuit for sg13g2_xnor2_1 abstract view
.subckt sg13g2_xnor2_1 Y A B VDD VSS
.ends

* Black-box entry subcircuit for sg13g2_nand3b_1 abstract view
.subckt sg13g2_nand3b_1 B C Y VDD VSS A_N
.ends

* Black-box entry subcircuit for sg13g2_or3_1 abstract view
.subckt sg13g2_or3_1 A B C X VDD VSS
.ends

* Black-box entry subcircuit for line_driver abstract view
.subckt line_driver ethernet_dn ethernet_dp in_n in_p VGND VPWR
.ends

.subckt heichips25_ethernet VGND VPWR clk ena ethernet_dn ethernet_dp rst_n ui_in[0]
+ ui_in[1] ui_in[2] ui_in[3] ui_in[4] ui_in[5] ui_in[6] ui_in[7] uio_in[0] uio_in[1]
+ uio_in[2] uio_in[3] uio_in[4] uio_in[5] uio_in[6] uio_in[7] uio_oe[0] uio_oe[1]
+ uio_oe[2] uio_oe[3] uio_oe[4] uio_oe[5] uio_oe[6] uio_oe[7] uio_out[0] uio_out[1]
+ uio_out[2] uio_out[3] uio_out[4] uio_out[5] uio_out[6] uio_out[7] uo_out[0] uo_out[1]
+ uo_out[2] uo_out[3] uo_out[4] uo_out[5] uo_out[6] uo_out[7]
XFILLER_39_277 VPWR VGND sg13g2_decap_8
XFILLER_22_177 VPWR VGND sg13g2_fill_1
XFILLER_45_236 VPWR VGND sg13g2_decap_8
X_501_ VGND VPWR _212_ _233_ _236_ net88 sg13g2_a21oi_1
X_432_ net142 net172 net27 _185_ VPWR VGND sg13g2_mux2_1
X_363_ _128_ phy_0.mdio_inst.state\[1\] phy_0.mdio_inst.header_buf\[11\] VPWR VGND
+ sg13g2_nand2_1
XFILLER_9_137 VPWR VGND sg13g2_decap_8
XFILLER_13_144 VPWR VGND sg13g2_decap_8
XFILLER_36_258 VPWR VGND sg13g2_decap_8
XFILLER_3_67 VPWR VGND sg13g2_decap_8
XFILLER_51_217 VPWR VGND sg13g2_decap_8
XFILLER_44_280 VPWR VGND sg13g2_decap_8
XFILLER_27_258 VPWR VGND sg13g2_decap_8
XFILLER_10_158 VPWR VGND sg13g2_decap_8
XFILLER_12_32 VPWR VGND sg13g2_decap_8
Xhold181 _047_ VPWR VGND net181 sg13g2_dlygate4sd3_1
Xhold192 _110_ VPWR VGND net192 sg13g2_dlygate4sd3_1
XFILLER_5_4 VPWR VGND sg13g2_decap_8
Xhold170 phy_0.mdio_inst.data_buf\[9\] VPWR VGND net170 sg13g2_dlygate4sd3_1
XFILLER_41_261 VPWR VGND sg13g2_decap_8
XFILLER_18_269 VPWR VGND sg13g2_decap_8
X_415_ _172_ _171_ net25 VPWR VGND sg13g2_nand2b_1
X_346_ net195 _115_ _116_ VPWR VGND sg13g2_nor2_1
XFILLER_5_151 VPWR VGND sg13g2_decap_8
XFILLER_49_350 VPWR VGND sg13g2_fill_2
XFILLER_17_280 VPWR VGND sg13g2_decap_8
XFILLER_24_206 VPWR VGND sg13g2_fill_1
Xclkbuf_4_12_0_clk clknet_0_clk clknet_4_12_0_clk VPWR VGND sg13g2_buf_8
XFILLER_32_272 VPWR VGND sg13g2_decap_8
XFILLER_15_228 VPWR VGND sg13g2_decap_8
XFILLER_2_154 VPWR VGND sg13g2_decap_8
XFILLER_48_72 VPWR VGND sg13g2_decap_8
XFILLER_0_35 VPWR VGND sg13g2_decap_8
X_329_ _100_ net207 phy_0.mdio_inst.bit_cnt\[1\] net205 VPWR VGND sg13g2_and3_1
XFILLER_9_11 VPWR VGND sg13g2_decap_8
XFILLER_9_88 VPWR VGND sg13g2_decap_8
XFILLER_37_342 VPWR VGND sg13g2_decap_8
XFILLER_20_297 VPWR VGND sg13g2_decap_8
XFILLER_47_117 VPWR VGND sg13g2_decap_8
XFILLER_43_301 VPWR VGND sg13g2_decap_8
X_680_ net45 VGND VPWR net148 phy_0.cycle_count\[1\] clknet_4_14_0_clk sg13g2_dfrbpq_1
XFILLER_18_53 VPWR VGND sg13g2_decap_8
XFILLER_11_242 VPWR VGND sg13g2_decap_8
XFILLER_50_95 VPWR VGND sg13g2_decap_8
XFILLER_7_235 VPWR VGND sg13g2_decap_8
XFILLER_46_150 VPWR VGND sg13g2_decap_8
XFILLER_34_345 VPWR VGND sg13g2_decap_8
XFILLER_40_304 VPWR VGND sg13g2_decap_8
XFILLER_4_249 VPWR VGND sg13g2_decap_8
Xhold74 _041_ VPWR VGND net74 sg13g2_dlygate4sd3_1
XFILLER_43_175 VPWR VGND sg13g2_decap_8
XFILLER_43_120 VPWR VGND sg13g2_decap_8
X_594_ _282_ net97 _295_ VPWR VGND sg13g2_xor2_1
Xhold96 _048_ VPWR VGND net96 sg13g2_dlygate4sd3_1
XFILLER_31_304 VPWR VGND sg13g2_decap_8
XFILLER_16_323 VPWR VGND sg13g2_decap_8
Xhold85 _033_ VPWR VGND net85 sg13g2_dlygate4sd3_1
X_663_ net40 VGND VPWR _026_ phy_0.tx_packet_count\[0\] clknet_4_9_0_clk sg13g2_dfrbpq_1
XFILLER_6_67 VPWR VGND sg13g2_decap_8
XFILLER_22_337 VPWR VGND sg13g2_decap_8
XFILLER_15_32 VPWR VGND sg13g2_decap_8
Xheichips25_ethernet_56 VPWR VGND uio_out[5] sg13g2_tielo
XFILLER_25_131 VPWR VGND sg13g2_fill_1
XFILLER_9_319 VPWR VGND sg13g2_decap_8
XFILLER_13_326 VPWR VGND sg13g2_decap_8
XFILLER_48_289 VPWR VGND sg13g2_decap_8
XFILLER_48_212 VPWR VGND sg13g2_decap_8
XFILLER_0_252 VPWR VGND sg13g2_decap_8
X_715_ net31 VGND VPWR _078_ phy_0.mdio_inst.header_buf\[7\] clknet_4_1_0_clk sg13g2_dfrbpq_1
X_577_ _280_ net93 _064_ VPWR VGND sg13g2_nor2b_1
XFILLER_16_197 VPWR VGND sg13g2_decap_8
X_646_ net33 VGND VPWR net173 phy_0.mdio_inst.data_buf\[12\] clknet_4_9_0_clk sg13g2_dfrbpq_1
XFILLER_8_352 VPWR VGND sg13g2_fill_1
XFILLER_39_256 VPWR VGND sg13g2_decap_8
XFILLER_45_215 VPWR VGND sg13g2_decap_8
X_500_ _215_ _234_ _235_ VPWR VGND sg13g2_nor2_1
X_362_ net176 net9 net27 _127_ VPWR VGND sg13g2_mux2_1
XFILLER_9_116 VPWR VGND sg13g2_decap_8
XFILLER_13_123 VPWR VGND sg13g2_decap_8
X_431_ VPWR VGND _182_ _184_ _141_ _093_ _006_ _132_ sg13g2_a221oi_1
XFILLER_42_96 VPWR VGND sg13g2_fill_2
XFILLER_5_333 VPWR VGND sg13g2_decap_8
XFILLER_3_46 VPWR VGND sg13g2_decap_8
X_629_ VPWR _084_ net124 VGND sg13g2_inv_1
XFILLER_36_237 VPWR VGND sg13g2_decap_8
XFILLER_8_182 VPWR VGND sg13g2_decap_8
XFILLER_35_292 VPWR VGND sg13g2_decap_8
XFILLER_50_284 VPWR VGND sg13g2_decap_8
XFILLER_10_137 VPWR VGND sg13g2_decap_8
XFILLER_12_11 VPWR VGND sg13g2_decap_8
XFILLER_12_88 VPWR VGND sg13g2_decap_8
Xhold193 _024_ VPWR VGND net193 sg13g2_dlygate4sd3_1
Xhold182 phy_0.mdio_inst.bit_cnt\[3\] VPWR VGND net182 sg13g2_dlygate4sd3_1
Xhold160 phy_0.mdio_inst.data_buf\[2\] VPWR VGND net160 sg13g2_dlygate4sd3_1
XFILLER_2_336 VPWR VGND sg13g2_decap_8
Xhold171 _005_ VPWR VGND net171 sg13g2_dlygate4sd3_1
XFILLER_18_248 VPWR VGND sg13g2_decap_8
XFILLER_41_240 VPWR VGND sg13g2_decap_8
X_345_ _115_ net123 net211 VPWR VGND sg13g2_nand2b_1
X_414_ VGND VPWR net88 net28 _171_ _170_ sg13g2_a21oi_1
XFILLER_5_130 VPWR VGND sg13g2_decap_8
XFILLER_32_251 VPWR VGND sg13g2_decap_8
XFILLER_15_207 VPWR VGND sg13g2_decap_8
XFILLER_23_295 VPWR VGND sg13g2_decap_8
XFILLER_23_65 VPWR VGND sg13g2_fill_1
XFILLER_2_133 VPWR VGND sg13g2_decap_8
XFILLER_46_332 VPWR VGND sg13g2_decap_8
XFILLER_0_14 VPWR VGND sg13g2_decap_8
XFILLER_9_67 VPWR VGND sg13g2_decap_8
XFILLER_14_284 VPWR VGND sg13g2_decap_8
X_328_ VPWR _099_ phy_0.mdio_inst.mdio_o VGND sg13g2_inv_1
XFILLER_50_4 VPWR VGND sg13g2_decap_8
XFILLER_37_321 VPWR VGND sg13g2_decap_8
XFILLER_20_276 VPWR VGND sg13g2_decap_8
XFILLER_18_21 VPWR VGND sg13g2_decap_8
XFILLER_28_332 VPWR VGND sg13g2_decap_8
XFILLER_7_214 VPWR VGND sg13g2_decap_8
XFILLER_11_221 VPWR VGND sg13g2_decap_8
XFILLER_11_298 VPWR VGND sg13g2_decap_8
XFILLER_50_74 VPWR VGND sg13g2_decap_8
XFILLER_22_8 VPWR VGND sg13g2_fill_2
Xclkbuf_4_11_0_clk clknet_0_clk clknet_4_11_0_clk VPWR VGND sg13g2_buf_8
XFILLER_34_324 VPWR VGND sg13g2_decap_8
XFILLER_6_291 VPWR VGND sg13g2_decap_8
XFILLER_25_335 VPWR VGND sg13g2_decap_8
XFILLER_4_228 VPWR VGND sg13g2_decap_8
XFILLER_20_22 VPWR VGND sg13g2_decap_8
Xhold97 phy_0.mdio_inst.ones_cnt\[3\] VPWR VGND net97 sg13g2_dlygate4sd3_1
Xhold64 phy_0.txd_d\[1\] VPWR VGND net64 sg13g2_dlygate4sd3_1
Xhold86 phy_0.mdio_inst.header_buf\[9\] VPWR VGND net86 sg13g2_dlygate4sd3_1
Xhold75 phy_0.mdio_inst.data_buf\[15\] VPWR VGND net75 sg13g2_dlygate4sd3_1
X_662_ net32 VGND VPWR net169 phy_0.reg_loopback clknet_4_2_0_clk sg13g2_dfrbpq_1
XFILLER_45_96 VPWR VGND sg13g2_decap_8
X_593_ _294_ net97 _286_ VPWR VGND sg13g2_nand2_1
XFILLER_16_302 VPWR VGND sg13g2_decap_8
XFILLER_6_46 VPWR VGND sg13g2_decap_8
XFILLER_13_4 VPWR VGND sg13g2_decap_8
XFILLER_22_316 VPWR VGND sg13g2_decap_8
XFILLER_13_305 VPWR VGND sg13g2_decap_8
XFILLER_15_11 VPWR VGND sg13g2_decap_8
Xheichips25_ethernet_57 VPWR VGND uio_out[6] sg13g2_tielo
Xheichips25_ethernet_46 VPWR VGND uio_oe[2] sg13g2_tielo
XFILLER_15_88 VPWR VGND sg13g2_decap_8
XFILLER_0_231 VPWR VGND sg13g2_decap_8
Xoutput10 net10 uio_oe[1] VPWR VGND sg13g2_buf_1
XFILLER_48_268 VPWR VGND sg13g2_decap_8
X_645_ net40 VGND VPWR net185 phy_0.mdio_inst.data_buf\[11\] clknet_4_9_0_clk sg13g2_dfrbpq_1
X_714_ net31 VGND VPWR _077_ phy_0.mdio_inst.header_buf\[6\] clknet_4_1_0_clk sg13g2_dfrbpq_1
X_576_ _280_ net166 _063_ VPWR VGND sg13g2_nor2_1
XFILLER_16_176 VPWR VGND sg13g2_decap_8
XFILLER_39_235 VPWR VGND sg13g2_decap_8
XFILLER_10_319 VPWR VGND sg13g2_decap_8
X_361_ _112_ _121_ _126_ VPWR VGND sg13g2_nor2_1
XFILLER_13_102 VPWR VGND sg13g2_decap_8
XFILLER_13_179 VPWR VGND sg13g2_decap_8
X_430_ net16 _183_ _184_ VPWR VGND sg13g2_nor2_1
XFILLER_26_65 VPWR VGND sg13g2_fill_1
XFILLER_5_312 VPWR VGND sg13g2_decap_8
XFILLER_3_25 VPWR VGND sg13g2_decap_8
X_628_ _313_ net21 net123 _123_ phy_0.mdio_inst.header_buf\[13\] VPWR VGND sg13g2_a22oi_1
XFILLER_8_161 VPWR VGND sg13g2_decap_8
X_559_ net117 net194 _270_ _055_ VPWR VGND sg13g2_mux2_1
XFILLER_50_263 VPWR VGND sg13g2_decap_8
XFILLER_35_271 VPWR VGND sg13g2_decap_8
XFILLER_10_116 VPWR VGND sg13g2_decap_8
XFILLER_6_109 VPWR VGND sg13g2_decap_8
XFILLER_12_67 VPWR VGND sg13g2_decap_8
Xhold183 _062_ VPWR VGND net183 sg13g2_dlygate4sd3_1
XFILLER_2_315 VPWR VGND sg13g2_decap_8
Xhold161 phy_0.mdio_inst.data_buf\[8\] VPWR VGND net161 sg13g2_dlygate4sd3_1
Xhold172 phy_0.mdio_inst.data_buf\[11\] VPWR VGND net172 sg13g2_dlygate4sd3_1
Xhold194 phy_0.mdio_inst.reg_addr\[3\] VPWR VGND net194 sg13g2_dlygate4sd3_1
Xhold150 phy_0.mdio_inst.header_buf\[4\] VPWR VGND net150 sg13g2_dlygate4sd3_1
XFILLER_37_53 VPWR VGND sg13g2_fill_1
XFILLER_18_227 VPWR VGND sg13g2_decap_8
X_413_ _088_ _146_ _170_ VPWR VGND sg13g2_and2_1
XFILLER_41_296 VPWR VGND sg13g2_decap_8
X_344_ net129 net119 net152 _113_ _114_ VPWR VGND sg13g2_nor4_1
XFILLER_45_7 VPWR VGND sg13g2_decap_8
XFILLER_5_186 VPWR VGND sg13g2_decap_8
XFILLER_49_352 VPWR VGND sg13g2_fill_1
XFILLER_23_274 VPWR VGND sg13g2_decap_8
XFILLER_2_112 VPWR VGND sg13g2_decap_8
XFILLER_46_311 VPWR VGND sg13g2_decap_8
XFILLER_2_189 VPWR VGND sg13g2_decap_8
XFILLER_14_263 VPWR VGND sg13g2_decap_8
X_327_ VPWR _098_ phy_0.enc_buf\[2\] VGND sg13g2_inv_1
XFILLER_9_46 VPWR VGND sg13g2_decap_8
XFILLER_49_182 VPWR VGND sg13g2_decap_8
XFILLER_37_300 VPWR VGND sg13g2_decap_8
XFILLER_20_255 VPWR VGND sg13g2_decap_8
XFILLER_28_311 VPWR VGND sg13g2_decap_8
XFILLER_43_336 VPWR VGND sg13g2_decap_8
XFILLER_18_66 VPWR VGND sg13g2_decap_4
XFILLER_18_77 VPWR VGND sg13g2_fill_1
XFILLER_50_53 VPWR VGND sg13g2_decap_8
XFILLER_11_200 VPWR VGND sg13g2_decap_8
XFILLER_11_277 VPWR VGND sg13g2_decap_8
XFILLER_1_0 VPWR VGND sg13g2_decap_8
XFILLER_46_185 VPWR VGND sg13g2_decap_8
XFILLER_34_303 VPWR VGND sg13g2_decap_8
XFILLER_19_344 VPWR VGND sg13g2_decap_8
XFILLER_6_270 VPWR VGND sg13g2_decap_8
XFILLER_1_91 VPWR VGND sg13g2_decap_8
XFILLER_25_314 VPWR VGND sg13g2_decap_8
XFILLER_40_339 VPWR VGND sg13g2_decap_8
XFILLER_4_207 VPWR VGND sg13g2_decap_8
X_592_ _291_ VPWR _067_ VGND _287_ _293_ sg13g2_o21ai_1
Xhold98 _068_ VPWR VGND net98 sg13g2_dlygate4sd3_1
X_661_ net38 VGND VPWR net5 phy_0.txd_d\[1\] clknet_4_13_0_clk sg13g2_dfrbpq_1
Xhold65 phy_0.txd_d\[0\] VPWR VGND net65 sg13g2_dlygate4sd3_1
Xhold87 _310_ VPWR VGND net87 sg13g2_dlygate4sd3_1
Xhold76 _050_ VPWR VGND net76 sg13g2_dlygate4sd3_1
XFILLER_31_339 VPWR VGND sg13g2_decap_8
XFILLER_6_25 VPWR VGND sg13g2_decap_8
XFILLER_3_284 VPWR VGND sg13g2_decap_8
Xheichips25_ethernet_47 VPWR VGND uio_oe[3] sg13g2_tielo
XFILLER_15_67 VPWR VGND sg13g2_decap_8
Xheichips25_ethernet_58 VPWR VGND uio_out[7] sg13g2_tielo
Xclkbuf_4_10_0_clk clknet_0_clk clknet_4_10_0_clk VPWR VGND sg13g2_buf_8
XFILLER_0_210 VPWR VGND sg13g2_decap_8
XFILLER_0_287 VPWR VGND sg13g2_decap_8
Xoutput11 net11 uio_out[1] VPWR VGND sg13g2_buf_1
XFILLER_48_247 VPWR VGND sg13g2_decap_8
X_575_ VGND VPWR _101_ _111_ _281_ net165 sg13g2_a21oi_1
XFILLER_16_155 VPWR VGND sg13g2_decap_8
X_644_ net41 VGND VPWR net171 phy_0.mdio_inst.data_buf\[10\] clknet_4_10_0_clk sg13g2_dfrbpq_1
X_713_ net31 VGND VPWR _076_ phy_0.mdio_inst.header_buf\[5\] clknet_4_0_0_clk sg13g2_dfrbpq_1
XFILLER_8_343 VPWR VGND sg13g2_decap_8
XFILLER_39_214 VPWR VGND sg13g2_decap_8
XFILLER_13_158 VPWR VGND sg13g2_decap_8
X_360_ VPWR in_p in_n VGND sg13g2_inv_1
XFILLER_44_294 VPWR VGND sg13g2_decap_8
X_627_ VPWR _083_ _312_ VGND sg13g2_inv_1
XFILLER_29_280 VPWR VGND sg13g2_decap_8
X_558_ net135 net203 _270_ _054_ VPWR VGND sg13g2_mux2_1
XFILLER_8_140 VPWR VGND sg13g2_decap_8
X_489_ net108 net77 _226_ VPWR VGND sg13g2_and2_1
XFILLER_42_209 VPWR VGND sg13g2_decap_8
XFILLER_50_242 VPWR VGND sg13g2_decap_8
XFILLER_35_250 VPWR VGND sg13g2_decap_8
Xhold140 phy_0.mdio_inst.reg_addr\[1\] VPWR VGND net140 sg13g2_dlygate4sd3_1
XFILLER_12_46 VPWR VGND sg13g2_decap_8
Xhold162 _019_ VPWR VGND net162 sg13g2_dlygate4sd3_1
Xhold151 _305_ VPWR VGND net151 sg13g2_dlygate4sd3_1
Xhold195 phy_0.mdio_inst.header_buf\[11\] VPWR VGND net195 sg13g2_dlygate4sd3_1
Xhold184 phy_0.mdio_inst.data_buf\[10\] VPWR VGND net184 sg13g2_dlygate4sd3_1
Xhold173 _007_ VPWR VGND net173 sg13g2_dlygate4sd3_1
X_412_ net15 _168_ _169_ VPWR VGND sg13g2_nor2_1
XFILLER_26_283 VPWR VGND sg13g2_decap_8
XFILLER_41_275 VPWR VGND sg13g2_decap_8
X_343_ _113_ net150 net158 VPWR VGND sg13g2_nand2b_1
XFILLER_5_165 VPWR VGND sg13g2_decap_8
XFILLER_32_286 VPWR VGND sg13g2_decap_8
XFILLER_17_294 VPWR VGND sg13g2_decap_8
XFILLER_23_253 VPWR VGND sg13g2_decap_8
XFILLER_3_4 VPWR VGND sg13g2_decap_8
XFILLER_2_168 VPWR VGND sg13g2_decap_8
XFILLER_48_86 VPWR VGND sg13g2_decap_8
XFILLER_48_42 VPWR VGND sg13g2_decap_8
XFILLER_0_49 VPWR VGND sg13g2_decap_8
X_326_ VPWR _097_ net95 VGND sg13g2_inv_1
XFILLER_9_25 VPWR VGND sg13g2_decap_8
XFILLER_14_242 VPWR VGND sg13g2_decap_8
XFILLER_49_161 VPWR VGND sg13g2_decap_8
XFILLER_43_315 VPWR VGND sg13g2_decap_8
XFILLER_50_32 VPWR VGND sg13g2_decap_8
XFILLER_7_249 VPWR VGND sg13g2_decap_8
XFILLER_11_256 VPWR VGND sg13g2_decap_8
XFILLER_46_164 VPWR VGND sg13g2_decap_8
XFILLER_19_323 VPWR VGND sg13g2_decap_8
XFILLER_27_0 VPWR VGND sg13g2_fill_2
XFILLER_40_318 VPWR VGND sg13g2_decap_8
XFILLER_1_70 VPWR VGND sg13g2_decap_8
X_591_ _293_ _282_ _292_ VPWR VGND sg13g2_nand2_1
XFILLER_45_32 VPWR VGND sg13g2_fill_1
XFILLER_45_21 VPWR VGND sg13g2_decap_8
XFILLER_43_134 VPWR VGND sg13g2_decap_8
X_660_ net31 VGND VPWR net4 phy_0.txd_d\[0\] clknet_4_4_0_clk sg13g2_dfrbpq_1
XFILLER_16_337 VPWR VGND sg13g2_decap_8
Xhold88 phy_0.tx_packet_count\[8\] VPWR VGND net88 sg13g2_dlygate4sd3_1
Xhold99 phy_0.mdio_inst.mdio_oe VPWR VGND net99 sg13g2_dlygate4sd3_1
Xhold77 phy_0.tx_packet_count\[5\] VPWR VGND net77 sg13g2_dlygate4sd3_1
Xhold66 phy_0.tx_en_d VPWR VGND net66 sg13g2_dlygate4sd3_1
XFILLER_43_189 VPWR VGND sg13g2_decap_8
XFILLER_31_318 VPWR VGND sg13g2_decap_8
XFILLER_3_263 VPWR VGND sg13g2_decap_8
Xheichips25_ethernet_59 VPWR VGND uo_out[0] sg13g2_tielo
Xheichips25_ethernet_48 VPWR VGND uio_oe[4] sg13g2_tielo
XFILLER_15_46 VPWR VGND sg13g2_decap_8
XFILLER_31_89 VPWR VGND sg13g2_fill_2
Xoutput12 net12 uo_out[1] VPWR VGND sg13g2_buf_1
XFILLER_48_226 VPWR VGND sg13g2_decap_8
XFILLER_0_266 VPWR VGND sg13g2_decap_8
X_712_ net32 VGND VPWR _075_ phy_0.mdio_inst.header_buf\[4\] clknet_4_1_0_clk sg13g2_dfrbpq_1
X_574_ _119_ _279_ _280_ VPWR VGND sg13g2_nor2_1
XFILLER_16_134 VPWR VGND sg13g2_decap_8
XFILLER_16_123 VPWR VGND sg13g2_decap_8
X_643_ net41 VGND VPWR net162 phy_0.mdio_inst.data_buf\[9\] clknet_4_10_0_clk sg13g2_dfrbpq_1
XFILLER_8_322 VPWR VGND sg13g2_decap_8
XFILLER_12_351 VPWR VGND sg13g2_fill_2
XFILLER_12_340 VPWR VGND sg13g2_decap_8
XFILLER_47_292 VPWR VGND sg13g2_decap_8
XFILLER_45_229 VPWR VGND sg13g2_decap_8
XFILLER_38_292 VPWR VGND sg13g2_decap_8
XFILLER_26_12 VPWR VGND sg13g2_fill_1
XFILLER_13_137 VPWR VGND sg13g2_decap_8
XFILLER_5_347 VPWR VGND sg13g2_decap_4
XFILLER_44_273 VPWR VGND sg13g2_decap_8
X_626_ _312_ net21 net195 net19 net123 VPWR VGND sg13g2_a22oi_1
X_557_ VGND VPWR _089_ _270_ _053_ _272_ sg13g2_a21oi_1
X_488_ VGND VPWR net77 _223_ _031_ _225_ sg13g2_a21oi_1
XFILLER_8_196 VPWR VGND sg13g2_decap_8
XFILLER_50_298 VPWR VGND sg13g2_decap_8
XFILLER_50_221 VPWR VGND sg13g2_decap_8
XFILLER_12_25 VPWR VGND sg13g2_decap_8
Xhold141 _053_ VPWR VGND net141 sg13g2_dlygate4sd3_1
Xhold152 phy_0.mdio_inst.header_buf\[8\] VPWR VGND net152 sg13g2_dlygate4sd3_1
Xhold130 _308_ VPWR VGND net130 sg13g2_dlygate4sd3_1
Xhold174 phy_0.mdio_inst.reg_wdata\[15\] VPWR VGND net174 sg13g2_dlygate4sd3_1
Xhold163 phy_0.tx_packet_count\[10\] VPWR VGND net163 sg13g2_dlygate4sd3_1
Xhold185 _006_ VPWR VGND net185 sg13g2_dlygate4sd3_1
Xhold196 phy_0.mdio_inst.data_buf\[14\] VPWR VGND net196 sg13g2_dlygate4sd3_1
X_342_ net191 _105_ net178 _112_ VPWR VGND sg13g2_nand3_1
XFILLER_41_254 VPWR VGND sg13g2_decap_8
X_411_ net161 net204 net26 _168_ VPWR VGND sg13g2_mux2_1
XFILLER_26_262 VPWR VGND sg13g2_decap_8
XFILLER_5_144 VPWR VGND sg13g2_decap_8
XFILLER_1_350 VPWR VGND sg13g2_fill_2
XFILLER_49_343 VPWR VGND sg13g2_decap_8
XFILLER_17_273 VPWR VGND sg13g2_decap_8
X_609_ VPWR _074_ net118 VGND sg13g2_inv_1
XFILLER_32_265 VPWR VGND sg13g2_decap_8
XFILLER_4_81 VPWR VGND sg13g2_decap_8
XFILLER_48_21 VPWR VGND sg13g2_decap_8
XFILLER_2_147 VPWR VGND sg13g2_decap_8
XFILLER_46_346 VPWR VGND sg13g2_decap_8
XFILLER_0_28 VPWR VGND sg13g2_decap_8
XFILLER_14_221 VPWR VGND sg13g2_decap_8
XFILLER_14_298 VPWR VGND sg13g2_decap_8
X_325_ VPWR _096_ net110 VGND sg13g2_inv_1
XFILLER_49_140 VPWR VGND sg13g2_decap_8
XFILLER_37_335 VPWR VGND sg13g2_decap_8
XFILLER_9_291 VPWR VGND sg13g2_decap_8
XFILLER_18_46 VPWR VGND sg13g2_decap_8
XFILLER_18_35 VPWR VGND sg13g2_fill_1
XFILLER_28_346 VPWR VGND sg13g2_decap_8
XFILLER_11_235 VPWR VGND sg13g2_decap_8
XFILLER_50_88 VPWR VGND sg13g2_decap_8
XFILLER_50_11 VPWR VGND sg13g2_decap_8
XFILLER_7_228 VPWR VGND sg13g2_decap_8
Xclkload0 VPWR clkload0/Y clknet_4_3_0_clk VGND sg13g2_inv_1
XFILLER_19_302 VPWR VGND sg13g2_decap_8
XFILLER_46_143 VPWR VGND sg13g2_decap_8
XFILLER_34_338 VPWR VGND sg13g2_decap_8
XFILLER_25_349 VPWR VGND sg13g2_decap_4
XFILLER_29_67 VPWR VGND sg13g2_fill_2
XFILLER_43_168 VPWR VGND sg13g2_decap_8
XFILLER_43_113 VPWR VGND sg13g2_decap_8
X_590_ phy_0.mdio_inst.ones_cnt\[0\] phy_0.mdio_inst.ones_cnt\[1\] net104 _292_ VPWR
+ VGND sg13g2_a21o_1
Xhold67 phy_0.mdio_inst.mdc_d VPWR VGND net67 sg13g2_dlygate4sd3_1
XFILLER_16_316 VPWR VGND sg13g2_decap_8
Xhold89 _236_ VPWR VGND net89 sg13g2_dlygate4sd3_1
Xhold78 _031_ VPWR VGND net78 sg13g2_dlygate4sd3_1
XFILLER_28_165 VPWR VGND sg13g2_fill_2
XFILLER_3_242 VPWR VGND sg13g2_decap_8
XFILLER_20_8 VPWR VGND sg13g2_decap_8
Xheichips25_ethernet_49 VPWR VGND uio_oe[5] sg13g2_tielo
XFILLER_13_319 VPWR VGND sg13g2_decap_8
XFILLER_15_25 VPWR VGND sg13g2_decap_8
Xoutput13 net13 uo_out[2] VPWR VGND sg13g2_buf_1
XFILLER_48_205 VPWR VGND sg13g2_decap_8
XFILLER_0_245 VPWR VGND sg13g2_decap_8
X_642_ net41 VGND VPWR _018_ phy_0.mdio_inst.data_buf\[8\] clknet_4_10_0_clk sg13g2_dfrbpq_1
X_711_ net33 VGND VPWR _074_ phy_0.mdio_inst.header_buf\[3\] clknet_4_3_0_clk sg13g2_dfrbpq_1
X_573_ VGND VPWR net165 _101_ _279_ _112_ sg13g2_a21oi_1
XFILLER_16_102 VPWR VGND sg13g2_decap_8
XFILLER_8_301 VPWR VGND sg13g2_decap_8
XFILLER_47_271 VPWR VGND sg13g2_decap_8
XFILLER_39_249 VPWR VGND sg13g2_decap_8
XFILLER_11_4 VPWR VGND sg13g2_decap_8
XFILLER_7_81 VPWR VGND sg13g2_decap_8
XFILLER_45_208 VPWR VGND sg13g2_decap_8
XFILLER_38_271 VPWR VGND sg13g2_decap_8
XFILLER_13_116 VPWR VGND sg13g2_decap_8
XFILLER_42_56 VPWR VGND sg13g2_fill_1
XFILLER_5_326 VPWR VGND sg13g2_decap_8
XFILLER_9_109 VPWR VGND sg13g2_decap_8
XFILLER_3_39 VPWR VGND sg13g2_decap_8
X_625_ VPWR _082_ net188 VGND sg13g2_inv_1
XFILLER_44_252 VPWR VGND sg13g2_decap_8
X_556_ net90 _270_ _272_ VPWR VGND sg13g2_nor2_1
X_487_ net77 _222_ _225_ VPWR VGND sg13g2_nor2b_1
XFILLER_8_175 VPWR VGND sg13g2_decap_8
XFILLER_12_193 VPWR VGND sg13g2_decap_8
XFILLER_50_200 VPWR VGND sg13g2_decap_8
XFILLER_35_285 VPWR VGND sg13g2_decap_8
XFILLER_50_277 VPWR VGND sg13g2_decap_8
Xhold131 phy_0.enc_buf\[3\] VPWR VGND net131 sg13g2_dlygate4sd3_1
Xhold197 phy_0.tx_packet_count\[2\] VPWR VGND net197 sg13g2_dlygate4sd3_1
Xhold120 _307_ VPWR VGND net120 sg13g2_dlygate4sd3_1
XFILLER_2_329 VPWR VGND sg13g2_decap_8
Xhold164 _241_ VPWR VGND net164 sg13g2_dlygate4sd3_1
Xhold175 _058_ VPWR VGND net175 sg13g2_dlygate4sd3_1
Xhold142 phy_0.mdio_inst.data_buf\[12\] VPWR VGND net142 sg13g2_dlygate4sd3_1
Xhold153 phy_0.mdio_inst.data_buf\[4\] VPWR VGND net153 sg13g2_dlygate4sd3_1
Xhold186 phy_0.mdio_inst.reg_addr\[4\] VPWR VGND net186 sg13g2_dlygate4sd3_1
X_341_ net191 _107_ _111_ VPWR VGND sg13g2_and2_1
XFILLER_41_233 VPWR VGND sg13g2_decap_8
X_410_ _165_ _166_ _167_ _017_ VPWR VGND sg13g2_nor3_1
XFILLER_5_123 VPWR VGND sg13g2_decap_8
XFILLER_49_322 VPWR VGND sg13g2_decap_8
XFILLER_17_252 VPWR VGND sg13g2_decap_8
X_608_ _303_ net20 net117 net18 phy_0.mdio_inst.header_buf\[3\] VPWR VGND sg13g2_a22oi_1
X_539_ phy_0.txd_dd\[1\] net131 net22 _046_ VPWR VGND sg13g2_mux2_1
XFILLER_4_60 VPWR VGND sg13g2_decap_8
XFILLER_23_288 VPWR VGND sg13g2_decap_8
XFILLER_2_126 VPWR VGND sg13g2_decap_8
XFILLER_46_325 VPWR VGND sg13g2_decap_8
XFILLER_14_200 VPWR VGND sg13g2_decap_8
XFILLER_14_277 VPWR VGND sg13g2_decap_8
X_324_ VPWR _095_ net91 VGND sg13g2_inv_1
XFILLER_49_196 VPWR VGND sg13g2_decap_8
XFILLER_37_314 VPWR VGND sg13g2_decap_8
XFILLER_9_270 VPWR VGND sg13g2_decap_8
XFILLER_20_269 VPWR VGND sg13g2_decap_8
XFILLER_18_14 VPWR VGND sg13g2_decap_8
XFILLER_28_325 VPWR VGND sg13g2_decap_8
XFILLER_51_350 VPWR VGND sg13g2_fill_2
Xclkload1 VPWR clkload1/Y clknet_4_7_0_clk VGND sg13g2_inv_1
XFILLER_7_207 VPWR VGND sg13g2_decap_8
XFILLER_11_214 VPWR VGND sg13g2_decap_8
XFILLER_50_67 VPWR VGND sg13g2_decap_8
XFILLER_46_122 VPWR VGND sg13g2_decap_8
XFILLER_46_199 VPWR VGND sg13g2_decap_8
XFILLER_34_317 VPWR VGND sg13g2_decap_8
XFILLER_10_291 VPWR VGND sg13g2_decap_8
XFILLER_6_284 VPWR VGND sg13g2_decap_8
XFILLER_25_328 VPWR VGND sg13g2_decap_8
XFILLER_20_15 VPWR VGND sg13g2_decap_8
Xhold79 phy_0.mdio_inst.ones_cnt\[5\] VPWR VGND net79 sg13g2_dlygate4sd3_1
Xhold68 phy_0.ref_clk_d VPWR VGND net68 sg13g2_dlygate4sd3_1
XFILLER_24_350 VPWR VGND sg13g2_fill_2
XFILLER_6_39 VPWR VGND sg13g2_decap_8
XFILLER_3_298 VPWR VGND sg13g2_decap_8
XFILLER_3_221 VPWR VGND sg13g2_decap_8
XFILLER_10_81 VPWR VGND sg13g2_decap_8
XFILLER_22_309 VPWR VGND sg13g2_decap_8
XFILLER_32_0 VPWR VGND sg13g2_fill_2
XFILLER_21_342 VPWR VGND sg13g2_decap_8
Xoutput14 net14 uo_out[3] VPWR VGND sg13g2_buf_1
XFILLER_0_224 VPWR VGND sg13g2_decap_8
X_572_ _277_ VPWR _062_ VGND _101_ _278_ sg13g2_o21ai_1
X_641_ net41 VGND VPWR net126 phy_0.mdio_inst.data_buf\[7\] clknet_4_10_0_clk sg13g2_dfrbpq_1
X_710_ net35 VGND VPWR _073_ phy_0.mdio_inst.header_buf\[2\] clknet_4_1_0_clk sg13g2_dfrbpq_1
XFILLER_16_169 VPWR VGND sg13g2_decap_8
XFILLER_39_228 VPWR VGND sg13g2_decap_8
XFILLER_47_250 VPWR VGND sg13g2_decap_8
XFILLER_7_60 VPWR VGND sg13g2_decap_8
XFILLER_38_250 VPWR VGND sg13g2_decap_8
XFILLER_5_305 VPWR VGND sg13g2_decap_8
XFILLER_3_18 VPWR VGND sg13g2_decap_8
XFILLER_44_231 VPWR VGND sg13g2_decap_8
X_624_ _311_ net21 net187 net19 phy_0.mdio_inst.header_buf\[11\] VPWR VGND sg13g2_a22oi_1
X_555_ VGND VPWR _088_ _270_ _052_ _271_ sg13g2_a21oi_1
XFILLER_29_294 VPWR VGND sg13g2_decap_8
XFILLER_8_154 VPWR VGND sg13g2_decap_8
XFILLER_12_172 VPWR VGND sg13g2_decap_8
X_486_ _223_ net109 _030_ VPWR VGND sg13g2_nor2_1
XFILLER_50_256 VPWR VGND sg13g2_decap_8
XFILLER_35_264 VPWR VGND sg13g2_decap_8
XFILLER_10_109 VPWR VGND sg13g2_decap_8
Xhold110 phy_0.tx_packet_count\[14\] VPWR VGND net110 sg13g2_dlygate4sd3_1
Xhold132 _046_ VPWR VGND net132 sg13g2_dlygate4sd3_1
Xhold165 phy_0.mdio_inst.bit_cnt\[4\] VPWR VGND net165 sg13g2_dlygate4sd3_1
Xhold198 _023_ VPWR VGND net198 sg13g2_dlygate4sd3_1
Xhold187 phy_0.mdio_inst.header_buf\[10\] VPWR VGND net187 sg13g2_dlygate4sd3_1
Xhold176 phy_0.mdio_inst.data_buf\[0\] VPWR VGND net176 sg13g2_dlygate4sd3_1
XFILLER_2_308 VPWR VGND sg13g2_decap_8
Xhold143 _008_ VPWR VGND net143 sg13g2_dlygate4sd3_1
Xhold121 phy_0.mdio_inst.data_buf\[5\] VPWR VGND net121 sg13g2_dlygate4sd3_1
Xhold154 _015_ VPWR VGND net154 sg13g2_dlygate4sd3_1
XFILLER_41_289 VPWR VGND sg13g2_decap_8
XFILLER_41_212 VPWR VGND sg13g2_decap_8
X_340_ VGND VPWR _104_ _107_ _024_ net192 sg13g2_a21oi_1
XFILLER_26_297 VPWR VGND sg13g2_decap_8
XFILLER_5_179 VPWR VGND sg13g2_decap_8
XFILLER_5_102 VPWR VGND sg13g2_decap_8
XFILLER_49_301 VPWR VGND sg13g2_decap_8
XFILLER_1_352 VPWR VGND sg13g2_fill_1
X_538_ _260_ net199 net22 _045_ VPWR VGND sg13g2_nand3_1
X_607_ VPWR _073_ _302_ VGND sg13g2_inv_1
XFILLER_17_231 VPWR VGND sg13g2_decap_8
X_469_ _212_ _210_ _211_ VPWR VGND sg13g2_nand2_1
XFILLER_23_267 VPWR VGND sg13g2_decap_8
XFILLER_2_105 VPWR VGND sg13g2_decap_8
XFILLER_48_56 VPWR VGND sg13g2_decap_4
XFILLER_46_304 VPWR VGND sg13g2_decap_8
XFILLER_14_256 VPWR VGND sg13g2_decap_8
XFILLER_9_39 VPWR VGND sg13g2_decap_8
XFILLER_13_81 VPWR VGND sg13g2_decap_8
X_323_ VPWR _094_ net142 VGND sg13g2_inv_1
XFILLER_49_175 VPWR VGND sg13g2_decap_8
XFILLER_1_182 VPWR VGND sg13g2_decap_8
XFILLER_28_304 VPWR VGND sg13g2_decap_8
XFILLER_43_329 VPWR VGND sg13g2_decap_8
XFILLER_50_46 VPWR VGND sg13g2_decap_8
Xclkload2 VPWR clkload2/Y clknet_4_11_0_clk VGND sg13g2_inv_1
XFILLER_46_101 VPWR VGND sg13g2_decap_8
XFILLER_19_337 VPWR VGND sg13g2_decap_8
XFILLER_46_178 VPWR VGND sg13g2_decap_8
XFILLER_6_263 VPWR VGND sg13g2_decap_8
XFILLER_10_270 VPWR VGND sg13g2_decap_8
XFILLER_1_84 VPWR VGND sg13g2_decap_8
XFILLER_25_307 VPWR VGND sg13g2_decap_8
Xhold69 phy_0.enc_count\[0\] VPWR VGND net69 sg13g2_dlygate4sd3_1
XFILLER_43_148 VPWR VGND sg13g2_decap_4
XFILLER_28_167 VPWR VGND sg13g2_fill_1
XFILLER_6_18 VPWR VGND sg13g2_decap_8
XFILLER_3_200 VPWR VGND sg13g2_decap_8
XFILLER_3_277 VPWR VGND sg13g2_decap_8
XFILLER_10_60 VPWR VGND sg13g2_decap_8
XFILLER_42_181 VPWR VGND sg13g2_decap_8
XFILLER_30_332 VPWR VGND sg13g2_decap_8
XFILLER_15_351 VPWR VGND sg13g2_fill_2
XFILLER_15_340 VPWR VGND sg13g2_decap_8
XFILLER_21_321 VPWR VGND sg13g2_decap_8
XFILLER_0_203 VPWR VGND sg13g2_decap_8
X_571_ _111_ VPWR _278_ VGND net182 _100_ sg13g2_o21ai_1
XFILLER_16_148 VPWR VGND sg13g2_decap_8
X_640_ net41 VGND VPWR net122 phy_0.mdio_inst.data_buf\[6\] clknet_4_11_0_clk sg13g2_dfrbpq_1
XFILLER_8_336 VPWR VGND sg13g2_decap_8
XFILLER_39_207 VPWR VGND sg13g2_decap_8
XFILLER_44_287 VPWR VGND sg13g2_decap_8
XFILLER_44_210 VPWR VGND sg13g2_decap_8
X_623_ VPWR _081_ net87 VGND sg13g2_inv_1
X_554_ net9 _270_ _271_ VPWR VGND sg13g2_nor2_1
X_485_ VGND VPWR _212_ _221_ _224_ net108 sg13g2_a21oi_1
XFILLER_29_273 VPWR VGND sg13g2_decap_8
XFILLER_8_133 VPWR VGND sg13g2_decap_8
XFILLER_12_151 VPWR VGND sg13g2_decap_8
XFILLER_16_81 VPWR VGND sg13g2_decap_8
XFILLER_50_235 VPWR VGND sg13g2_decap_8
XFILLER_35_243 VPWR VGND sg13g2_decap_8
XFILLER_12_39 VPWR VGND sg13g2_decap_8
Xhold133 phy_0.tx_packet_count\[11\] VPWR VGND net133 sg13g2_dlygate4sd3_1
Xhold111 _040_ VPWR VGND net111 sg13g2_dlygate4sd3_1
Xhold100 _051_ VPWR VGND net100 sg13g2_dlygate4sd3_1
Xhold122 _016_ VPWR VGND net122 sg13g2_dlygate4sd3_1
Xhold144 phy_0.mdio_inst.data_buf\[3\] VPWR VGND net144 sg13g2_dlygate4sd3_1