* NGSPICE file created from heichips25_ethernet.ext - technology: ihp-sg13g2

* Black-box entry subcircuit for sg13g2_decap_8 abstract view
.subckt sg13g2_decap_8 VDD VSS
.ends

* Black-box entry subcircuit for sg13g2_dfrbpq_1 abstract view
.subckt sg13g2_dfrbpq_1 RESET_B VSS VDD D Q CLK
.ends

* Black-box entry subcircuit for sg13g2_buf_16 abstract view
.subckt sg13g2_buf_16 X A VDD VSS
.ends

* Black-box entry subcircuit for sg13g2_fill_1 abstract view
.subckt sg13g2_fill_1 VDD VSS
.ends

* Black-box entry subcircuit for sg13g2_nor2_1 abstract view
.subckt sg13g2_nor2_1 A B Y VDD VSS
.ends

* Black-box entry subcircuit for sg13g2_fill_2 abstract view
.subckt sg13g2_fill_2 VDD VSS
.ends

* Black-box entry subcircuit for sg13g2_dlygate4sd3_1 abstract view
.subckt sg13g2_dlygate4sd3_1 A VDD VSS X
.ends

* Black-box entry subcircuit for sg13g2_decap_4 abstract view
.subckt sg13g2_decap_4 VDD VSS
.ends

* Black-box entry subcircuit for sg13g2_tielo abstract view
.subckt sg13g2_tielo VDD VSS L_LO
.ends

* Black-box entry subcircuit for sg13g2_buf_1 abstract view
.subckt sg13g2_buf_1 A X VDD VSS
.ends

* Black-box entry subcircuit for sg13g2_a221oi_1 abstract view
.subckt sg13g2_a221oi_1 VDD VSS B2 C1 B1 A1 Y A2
.ends

* Black-box entry subcircuit for sg13g2_and2_1 abstract view
.subckt sg13g2_and2_1 A B X VDD VSS
.ends

* Black-box entry subcircuit for sg13g2_nor3_1 abstract view
.subckt sg13g2_nor3_1 A B C Y VDD VSS
.ends

* Black-box entry subcircuit for sg13g2_inv_1 abstract view
.subckt sg13g2_inv_1 VDD Y A VSS
.ends

* Black-box entry subcircuit for sg13g2_nor2b_1 abstract view
.subckt sg13g2_nor2b_1 A B_N Y VDD VSS
.ends

* Black-box entry subcircuit for sg13g2_o21ai_1 abstract view
.subckt sg13g2_o21ai_1 B1 VDD Y VSS A1 A2
.ends

* Black-box entry subcircuit for sg13g2_xnor2_1 abstract view
.subckt sg13g2_xnor2_1 Y A B VDD VSS
.ends

* Black-box entry subcircuit for sg13g2_a21oi_1 abstract view
.subckt sg13g2_a21oi_1 VSS VDD A1 A2 Y B1
.ends

* Black-box entry subcircuit for sg13g2_nand2_1 abstract view
.subckt sg13g2_nand2_1 Y A B VDD VSS
.ends

* Black-box entry subcircuit for sg13g2_xor2_1 abstract view
.subckt sg13g2_xor2_1 B A X VDD VSS
.ends

* Black-box entry subcircuit for sg13g2_nand4_1 abstract view
.subckt sg13g2_nand4_1 B C A Y VDD VSS D
.ends

* Black-box entry subcircuit for sg13g2_nand3_1 abstract view
.subckt sg13g2_nand3_1 B C A Y VDD VSS
.ends

* Black-box entry subcircuit for sg13g2_nor4_1 abstract view
.subckt sg13g2_nor4_1 A B C D Y VDD VSS
.ends

* Black-box entry subcircuit for sg13g2_tiehi abstract view
.subckt sg13g2_tiehi VDD VSS L_HI
.ends

* Black-box entry subcircuit for sg13g2_a21o_1 abstract view
.subckt sg13g2_a21o_1 A2 A1 B1 X VDD VSS
.ends

* Black-box entry subcircuit for sg13g2_and4_1 abstract view
.subckt sg13g2_and4_1 A B C D X VDD VSS
.ends

* Black-box entry subcircuit for sg13g2_or4_1 abstract view
.subckt sg13g2_or4_1 A B C D X VDD VSS
.ends

* Black-box entry subcircuit for sg13g2_or2_1 abstract view
.subckt sg13g2_or2_1 VSS VDD X B A
.ends

* Black-box entry subcircuit for sg13g2_nand2b_1 abstract view
.subckt sg13g2_nand2b_1 Y B A_N VDD VSS
.ends

* Black-box entry subcircuit for sg13g2_a22oi_1 abstract view
.subckt sg13g2_a22oi_1 Y B1 B2 A2 A1 VDD VSS
.ends

* Black-box entry subcircuit for sg13g2_and3_1 abstract view
.subckt sg13g2_and3_1 X A B C VDD VSS
.ends

* Black-box entry subcircuit for line_driver abstract view
.subckt line_driver ethernet_dn ethernet_dp in_n in_p VGND VPWR
.ends

.subckt heichips25_ethernet VGND VPWR clk ena ethernet_dn ethernet_dp rst_n ui_in[0]
+ ui_in[1] ui_in[2] ui_in[3] ui_in[4] ui_in[5] ui_in[6] ui_in[7] uio_in[0] uio_in[1]
+ uio_in[2] uio_in[3] uio_in[4] uio_in[5] uio_in[6] uio_in[7] uio_oe[0] uio_oe[1]
+ uio_oe[2] uio_oe[3] uio_oe[4] uio_oe[5] uio_oe[6] uio_oe[7] uio_out[0] uio_out[1]
+ uio_out[2] uio_out[3] uio_out[4] uio_out[5] uio_out[6] uio_out[7] uo_out[0] uo_out[1]
+ uo_out[2] uo_out[3] uo_out[4] uo_out[5] uo_out[6] uo_out[7]
XFILLER_36_962 VPWR VGND sg13g2_decap_8
XFILLER_39_211 VPWR VGND sg13g2_decap_8
XFILLER_22_144 VPWR VGND sg13g2_decap_8
XFILLER_35_472 VPWR VGND sg13g2_decap_8
XFILLER_7_7 VPWR VGND sg13g2_decap_8
XFILLER_18_417 VPWR VGND sg13g2_decap_8
XFILLER_26_472 VPWR VGND sg13g2_decap_8
XFILLER_26_74 VPWR VGND sg13g2_decap_8
XFILLER_27_962 VPWR VGND sg13g2_decap_8
XFILLER_41_420 VPWR VGND sg13g2_decap_8
XFILLER_42_910 VPWR VGND sg13g2_decap_8
XFILLER_45_203 VPWR VGND sg13g2_decap_8
XFILLER_10_851 VPWR VGND sg13g2_decap_8
XFILLER_13_144 VPWR VGND sg13g2_decap_8
XFILLER_41_497 VPWR VGND sg13g2_decap_8
XFILLER_42_84 VPWR VGND sg13g2_decap_8
XFILLER_42_987 VPWR VGND sg13g2_decap_8
X_294_ net23 VGND VPWR _020_ phy_0.lit_count\[6\] clknet_3_6__leaf_clk_regs sg13g2_dfrbpq_1
Xclkbuf_3_6__f_clk_regs clknet_3_6__leaf_clk_regs clknet_0_clk_regs VPWR VGND sg13g2_buf_16
XFILLER_9_137 VPWR VGND sg13g2_decap_8
XFILLER_6_844 VPWR VGND sg13g2_decap_8
XFILLER_1_560 VPWR VGND sg13g2_decap_8
XFILLER_5_354 VPWR VGND sg13g2_decap_8
XFILLER_18_962 VPWR VGND sg13g2_decap_8
XFILLER_3_67 VPWR VGND sg13g2_decap_8
XFILLER_49_564 VPWR VGND sg13g2_decap_8
XFILLER_17_483 VPWR VGND sg13g2_decap_8
XFILLER_32_431 VPWR VGND sg13g2_decap_8
XFILLER_33_976 VPWR VGND sg13g2_decap_8
XFILLER_44_280 VPWR VGND sg13g2_decap_8
XFILLER_45_770 VPWR VGND sg13g2_decap_8
XFILLER_27_203 VPWR VGND sg13g2_decap_8
XFILLER_10_158 VPWR VGND sg13g2_decap_8
XFILLER_11_648 VPWR VGND sg13g2_decap_8
XFILLER_12_32 VPWR VGND sg13g2_decap_8
XFILLER_23_475 VPWR VGND sg13g2_decap_8
XFILLER_24_976 VPWR VGND sg13g2_decap_8
XFILLER_2_368 VPWR VGND sg13g2_decap_8
XFILLER_3_858 VPWR VGND sg13g2_decap_8
XFILLER_5_4 VPWR VGND sg13g2_decap_8
XFILLER_18_214 VPWR VGND sg13g2_decap_8
XFILLER_37_84 VPWR VGND sg13g2_decap_8
XFILLER_46_567 VPWR VGND sg13g2_decap_8
XFILLER_14_431 VPWR VGND sg13g2_decap_8
XFILLER_15_976 VPWR VGND sg13g2_decap_8
XFILLER_18_1004 VPWR VGND sg13g2_decap_8
XFILLER_41_272 VPWR VGND sg13g2_fill_1
XFILLER_42_784 VPWR VGND sg13g2_decap_8
X_277_ net20 VGND VPWR net3 phy_0.tx_en_d clknet_3_0__leaf_clk_regs sg13g2_dfrbpq_1
XFILLER_6_641 VPWR VGND sg13g2_decap_8
XFILLER_5_151 VPWR VGND sg13g2_decap_8
XFILLER_17_280 VPWR VGND sg13g2_decap_8
XFILLER_49_361 VPWR VGND sg13g2_decap_8
XFILLER_20_434 VPWR VGND sg13g2_decap_8
XFILLER_15_228 VPWR VGND sg13g2_decap_8
XFILLER_23_272 VPWR VGND sg13g2_decap_8
XFILLER_43_559 VPWR VGND sg13g2_decap_8
X_200_ net14 _066_ _004_ VPWR VGND sg13g2_nor2_1
XFILLER_11_445 VPWR VGND sg13g2_decap_8
XFILLER_20_990 VPWR VGND sg13g2_decap_8
XFILLER_8_928 VPWR VGND sg13g2_decap_8
XFILLER_7_427 VPWR VGND sg13g2_decap_8
XFILLER_48_1008 VPWR VGND sg13g2_decap_8
XFILLER_2_165 VPWR VGND sg13g2_decap_8
XFILLER_3_655 VPWR VGND sg13g2_decap_8
XFILLER_0_35 VPWR VGND sg13g2_decap_8
XFILLER_46_364 VPWR VGND sg13g2_decap_8
XFILLER_47_854 VPWR VGND sg13g2_decap_8
XFILLER_42_581 VPWR VGND sg13g2_decap_8
XFILLER_9_88 VPWR VGND sg13g2_decap_8
XFILLER_9_11 VPWR VGND sg13g2_decap_8
XFILLER_7_994 VPWR VGND sg13g2_decap_8
XFILLER_37_397 VPWR VGND sg13g2_decap_8
XFILLER_20_231 VPWR VGND sg13g2_decap_8
XFILLER_0_658 VPWR VGND sg13g2_decap_8
XFILLER_18_53 VPWR VGND sg13g2_decap_8
XFILLER_28_331 VPWR VGND sg13g2_decap_8
XFILLER_11_242 VPWR VGND sg13g2_decap_8
XFILLER_15_1018 VPWR VGND sg13g2_decap_8
XFILLER_34_52 VPWR VGND sg13g2_decap_8
XFILLER_34_63 VPWR VGND sg13g2_fill_2
XFILLER_34_74 VPWR VGND sg13g2_fill_2
XFILLER_43_356 VPWR VGND sg13g2_decap_8
XFILLER_44_868 VPWR VGND sg13g2_decap_8
XFILLER_8_725 VPWR VGND sg13g2_decap_8
XFILLER_3_452 VPWR VGND sg13g2_decap_8
XFILLER_7_224 VPWR VGND sg13g2_decap_8
XFILLER_4_942 VPWR VGND sg13g2_decap_8
XFILLER_19_331 VPWR VGND sg13g2_decap_8
XFILLER_46_161 VPWR VGND sg13g2_decap_8
XFILLER_47_651 VPWR VGND sg13g2_decap_8
XFILLER_7_791 VPWR VGND sg13g2_decap_8
XFILLER_25_312 VPWR VGND sg13g2_decap_8
XFILLER_38_1018 VPWR VGND sg13g2_decap_8
XFILLER_40_348 VPWR VGND sg13g2_decap_8
XFILLER_41_805 VPWR VGND sg13g2_decap_8
XFILLER_20_76 VPWR VGND sg13g2_decap_8
XFILLER_5_739 VPWR VGND sg13g2_decap_8
XFILLER_4_249 VPWR VGND sg13g2_decap_8
XFILLER_0_455 VPWR VGND sg13g2_decap_8
XFILLER_1_945 VPWR VGND sg13g2_decap_8
XFILLER_20_98 VPWR VGND sg13g2_decap_8
XFILLER_21_1011 VPWR VGND sg13g2_decap_8
XFILLER_29_74 VPWR VGND sg13g2_decap_8
Xhold74 _036_ VPWR VGND net74 sg13g2_dlygate4sd3_1
Xhold63 _090_ VPWR VGND net63 sg13g2_dlygate4sd3_1
Xhold52 phy_0.enc_count\[0\] VPWR VGND net52 sg13g2_dlygate4sd3_1
XFILLER_49_949 VPWR VGND sg13g2_decap_8
XFILLER_48_448 VPWR VGND sg13g2_decap_8
XFILLER_16_312 VPWR VGND sg13g2_decap_8
XFILLER_16_389 VPWR VGND sg13g2_decap_8
XFILLER_28_150 VPWR VGND sg13g2_decap_4
XFILLER_28_194 VPWR VGND sg13g2_decap_8
XFILLER_35_109 VPWR VGND sg13g2_fill_1
XFILLER_43_175 VPWR VGND sg13g2_decap_4
XFILLER_44_665 VPWR VGND sg13g2_decap_8
XFILLER_45_84 VPWR VGND sg13g2_decap_8
Xhold96 _119_ VPWR VGND net96 sg13g2_dlygate4sd3_1
Xhold85 phy_0.cycle_count\[2\] VPWR VGND net85 sg13g2_dlygate4sd3_1
XFILLER_8_522 VPWR VGND sg13g2_decap_8
XFILLER_8_599 VPWR VGND sg13g2_decap_8
XFILLER_6_67 VPWR VGND sg13g2_decap_8
XFILLER_20_4 VPWR VGND sg13g2_decap_4
XFILLER_39_426 VPWR VGND sg13g2_decap_8
XFILLER_6_1005 VPWR VGND sg13g2_decap_8
XFILLER_22_326 VPWR VGND sg13g2_decap_8
XFILLER_34_142 VPWR VGND sg13g2_decap_8
XFILLER_44_1022 VPWR VGND sg13g2_decap_8
XFILLER_15_32 VPWR VGND sg13g2_decap_8
XFILLER_41_602 VPWR VGND sg13g2_decap_8
Xheichips25_ethernet_34 VPWR VGND uio_out[6] sg13g2_tielo
XFILLER_13_326 VPWR VGND sg13g2_decap_8
XFILLER_40_112 VPWR VGND sg13g2_decap_8
XFILLER_41_679 VPWR VGND sg13g2_decap_8
Xclkbuf_3_5__f_clk_regs clknet_3_5__leaf_clk_regs clknet_0_clk_regs VPWR VGND sg13g2_buf_16
XFILLER_9_319 VPWR VGND sg13g2_decap_8
XFILLER_1_742 VPWR VGND sg13g2_decap_8
Xoutput7 net7 ethernet_dn VPWR VGND sg13g2_buf_1
XFILLER_5_536 VPWR VGND sg13g2_decap_8
XFILLER_0_252 VPWR VGND sg13g2_decap_8
XFILLER_36_407 VPWR VGND sg13g2_decap_8
XFILLER_49_746 VPWR VGND sg13g2_decap_8
XFILLER_48_245 VPWR VGND sg13g2_decap_8
XFILLER_16_186 VPWR VGND sg13g2_decap_8
XFILLER_44_462 VPWR VGND sg13g2_decap_8
XFILLER_45_952 VPWR VGND sg13g2_decap_8
XFILLER_9_886 VPWR VGND sg13g2_decap_8
XFILLER_8_396 VPWR VGND sg13g2_decap_8
XFILLER_35_451 VPWR VGND sg13g2_decap_8
XFILLER_22_123 VPWR VGND sg13g2_decap_8
XFILLER_46_749 VPWR VGND sg13g2_decap_8
XFILLER_13_123 VPWR VGND sg13g2_decap_8
XFILLER_26_451 VPWR VGND sg13g2_decap_8
XFILLER_26_53 VPWR VGND sg13g2_decap_8
XFILLER_41_476 VPWR VGND sg13g2_decap_8
XFILLER_42_966 VPWR VGND sg13g2_decap_8
XFILLER_45_259 VPWR VGND sg13g2_decap_8
XFILLER_9_116 VPWR VGND sg13g2_decap_8
XFILLER_10_830 VPWR VGND sg13g2_decap_8
XFILLER_42_63 VPWR VGND sg13g2_decap_8
X_293_ net23 VGND VPWR _019_ phy_0.lit_count\[5\] clknet_3_6__leaf_clk_regs sg13g2_dfrbpq_1
XFILLER_6_823 VPWR VGND sg13g2_decap_8
XFILLER_5_333 VPWR VGND sg13g2_decap_8
XFILLER_3_46 VPWR VGND sg13g2_decap_8
XFILLER_17_462 VPWR VGND sg13g2_decap_8
XFILLER_3_1019 VPWR VGND sg13g2_decap_8
XFILLER_49_543 VPWR VGND sg13g2_decap_8
XFILLER_32_410 VPWR VGND sg13g2_decap_8
XFILLER_32_487 VPWR VGND sg13g2_decap_8
XFILLER_33_955 VPWR VGND sg13g2_decap_8
XFILLER_9_683 VPWR VGND sg13g2_decap_8
XFILLER_8_193 VPWR VGND sg13g2_decap_8
XFILLER_23_454 VPWR VGND sg13g2_decap_8
XFILLER_24_955 VPWR VGND sg13g2_decap_8
XFILLER_10_137 VPWR VGND sg13g2_decap_8
XFILLER_11_627 VPWR VGND sg13g2_decap_8
XFILLER_12_11 VPWR VGND sg13g2_decap_8
XFILLER_12_88 VPWR VGND sg13g2_decap_8
XFILLER_7_609 VPWR VGND sg13g2_decap_8
XFILLER_2_347 VPWR VGND sg13g2_decap_8
XFILLER_3_837 VPWR VGND sg13g2_decap_8
XFILLER_37_63 VPWR VGND sg13g2_decap_8
XFILLER_46_546 VPWR VGND sg13g2_decap_8
XFILLER_14_410 VPWR VGND sg13g2_decap_8
XFILLER_14_487 VPWR VGND sg13g2_decap_8
XFILLER_15_955 VPWR VGND sg13g2_decap_8
XFILLER_26_281 VPWR VGND sg13g2_decap_8
XFILLER_30_969 VPWR VGND sg13g2_decap_8
XFILLER_42_763 VPWR VGND sg13g2_decap_8
X_276_ net19 VGND VPWR net48 phy_0.mdc_dd clknet_3_0__leaf_clk_regs sg13g2_dfrbpq_1
XFILLER_6_697 VPWR VGND sg13g2_decap_8
XFILLER_6_620 VPWR VGND sg13g2_decap_8
XFILLER_5_130 VPWR VGND sg13g2_decap_8
XFILLER_49_340 VPWR VGND sg13g2_decap_8
XFILLER_20_413 VPWR VGND sg13g2_decap_8
XFILLER_21_969 VPWR VGND sg13g2_decap_8
XFILLER_32_273 VPWR VGND sg13g2_fill_1
XFILLER_9_480 VPWR VGND sg13g2_decap_8
XFILLER_15_207 VPWR VGND sg13g2_decap_8
XFILLER_11_424 VPWR VGND sg13g2_decap_8
XFILLER_12_969 VPWR VGND sg13g2_decap_8
XFILLER_23_251 VPWR VGND sg13g2_decap_8
XFILLER_43_538 VPWR VGND sg13g2_decap_8
XFILLER_8_907 VPWR VGND sg13g2_decap_8
XFILLER_7_406 VPWR VGND sg13g2_decap_8
XFILLER_3_634 VPWR VGND sg13g2_decap_8
XFILLER_2_144 VPWR VGND sg13g2_decap_8
XFILLER_48_84 VPWR VGND sg13g2_decap_8
XFILLER_47_833 VPWR VGND sg13g2_decap_8
XFILLER_0_14 VPWR VGND sg13g2_decap_8
XFILLER_46_343 VPWR VGND sg13g2_decap_8
XFILLER_11_991 VPWR VGND sg13g2_decap_8
XFILLER_14_284 VPWR VGND sg13g2_decap_8
XFILLER_42_560 VPWR VGND sg13g2_decap_8
XFILLER_9_67 VPWR VGND sg13g2_decap_8
X_259_ VPWR VGND _107_ _106_ _095_ net18 _033_ _116_ sg13g2_a221oi_1
XFILLER_7_973 VPWR VGND sg13g2_decap_8
XFILLER_6_494 VPWR VGND sg13g2_decap_8
XFILLER_37_376 VPWR VGND sg13g2_decap_8
XFILLER_20_210 VPWR VGND sg13g2_decap_8
XFILLER_20_287 VPWR VGND sg13g2_decap_8
XFILLER_0_637 VPWR VGND sg13g2_decap_8
XFILLER_18_32 VPWR VGND sg13g2_decap_8
XFILLER_28_310 VPWR VGND sg13g2_decap_8
XFILLER_28_387 VPWR VGND sg13g2_decap_8
XFILLER_43_335 VPWR VGND sg13g2_decap_8
XFILLER_44_847 VPWR VGND sg13g2_decap_8
XFILLER_11_221 VPWR VGND sg13g2_decap_8
XFILLER_11_298 VPWR VGND sg13g2_decap_8
XFILLER_34_42 VPWR VGND sg13g2_decap_4
XFILLER_8_704 VPWR VGND sg13g2_decap_8
XFILLER_7_203 VPWR VGND sg13g2_decap_8
XFILLER_3_431 VPWR VGND sg13g2_decap_8
XFILLER_4_998 VPWR VGND sg13g2_decap_8
XFILLER_4_921 VPWR VGND sg13g2_decap_8
XFILLER_19_310 VPWR VGND sg13g2_decap_8
XFILLER_46_140 VPWR VGND sg13g2_decap_8
XFILLER_47_630 VPWR VGND sg13g2_decap_8
XFILLER_19_387 VPWR VGND sg13g2_decap_8
XFILLER_34_313 VPWR VGND sg13g2_decap_8
XFILLER_7_770 VPWR VGND sg13g2_decap_8
XFILLER_41_0 VPWR VGND sg13g2_decap_8
XFILLER_6_291 VPWR VGND sg13g2_decap_8
XFILLER_29_129 VPWR VGND sg13g2_decap_8
XFILLER_37_184 VPWR VGND sg13g2_fill_1
Xclkbuf_3_4__f_clk_regs clknet_3_4__leaf_clk_regs clknet_0_clk_regs VPWR VGND sg13g2_buf_16
XFILLER_1_924 VPWR VGND sg13g2_decap_8
XFILLER_5_718 VPWR VGND sg13g2_decap_8
XFILLER_4_228 VPWR VGND sg13g2_decap_8
XFILLER_0_434 VPWR VGND sg13g2_decap_8
XFILLER_29_53 VPWR VGND sg13g2_decap_8
Xhold97 phy_0.lit_count\[13\] VPWR VGND net97 sg13g2_dlygate4sd3_1
Xhold86 _031_ VPWR VGND net86 sg13g2_dlygate4sd3_1
Xhold75 phy_0.lit_count\[0\] VPWR VGND net75 sg13g2_dlygate4sd3_1
Xhold64 phy_0.lit_count\[7\] VPWR VGND net64 sg13g2_dlygate4sd3_1
Xhold53 _000_ VPWR VGND net53 sg13g2_dlygate4sd3_1
XFILLER_49_928 VPWR VGND sg13g2_decap_8
XFILLER_48_427 VPWR VGND sg13g2_decap_8
XFILLER_16_368 VPWR VGND sg13g2_decap_8
XFILLER_28_173 VPWR VGND sg13g2_decap_8
XFILLER_43_154 VPWR VGND sg13g2_decap_8
XFILLER_44_644 VPWR VGND sg13g2_decap_8
XFILLER_45_63 VPWR VGND sg13g2_decap_8
XFILLER_8_578 VPWR VGND sg13g2_decap_8
XFILLER_8_501 VPWR VGND sg13g2_decap_8
XFILLER_6_46 VPWR VGND sg13g2_decap_8
XFILLER_39_405 VPWR VGND sg13g2_decap_8
XFILLER_6_1028 VPWR VGND sg13g2_fill_1
XFILLER_4_795 VPWR VGND sg13g2_decap_8
XFILLER_13_4 VPWR VGND sg13g2_decap_8
XFILLER_19_184 VPWR VGND sg13g2_decap_8
XFILLER_48_994 VPWR VGND sg13g2_decap_8
XFILLER_22_305 VPWR VGND sg13g2_decap_8
XFILLER_34_187 VPWR VGND sg13g2_decap_8
XFILLER_30_393 VPWR VGND sg13g2_decap_8
XFILLER_44_1001 VPWR VGND sg13g2_decap_8
XFILLER_13_305 VPWR VGND sg13g2_decap_8
XFILLER_15_11 VPWR VGND sg13g2_decap_8
XFILLER_25_121 VPWR VGND sg13g2_fill_2
XFILLER_39_983 VPWR VGND sg13g2_decap_8
XFILLER_41_658 VPWR VGND sg13g2_decap_8
Xheichips25_ethernet_35 VPWR VGND uio_out[7] sg13g2_tielo
XFILLER_15_88 VPWR VGND sg13g2_decap_8
XFILLER_21_382 VPWR VGND sg13g2_decap_8
XFILLER_31_65 VPWR VGND sg13g2_decap_8
XFILLER_40_168 VPWR VGND sg13g2_fill_2
XFILLER_5_515 VPWR VGND sg13g2_decap_8
XFILLER_0_231 VPWR VGND sg13g2_decap_8
XFILLER_1_721 VPWR VGND sg13g2_decap_8
Xoutput8 net8 ethernet_dp VPWR VGND sg13g2_buf_1
Xoutput10 net10 uio_out[2] VPWR VGND sg13g2_buf_1
XFILLER_49_725 VPWR VGND sg13g2_decap_8
XFILLER_1_798 VPWR VGND sg13g2_decap_8
XFILLER_44_441 VPWR VGND sg13g2_decap_8
XFILLER_45_931 VPWR VGND sg13g2_decap_8
XFILLER_48_224 VPWR VGND sg13g2_decap_8
XFILLER_12_382 VPWR VGND sg13g2_decap_8
XFILLER_16_165 VPWR VGND sg13g2_decap_8
XFILLER_31_146 VPWR VGND sg13g2_decap_8
XFILLER_31_157 VPWR VGND sg13g2_fill_2
XFILLER_9_865 VPWR VGND sg13g2_decap_8
XFILLER_8_375 VPWR VGND sg13g2_decap_8
XFILLER_28_1018 VPWR VGND sg13g2_decap_8
XFILLER_4_592 VPWR VGND sg13g2_decap_8
XFILLER_22_102 VPWR VGND sg13g2_decap_8
XFILLER_27_419 VPWR VGND sg13g2_decap_8
XFILLER_35_430 VPWR VGND sg13g2_decap_8
XFILLER_36_997 VPWR VGND sg13g2_decap_8
XFILLER_48_791 VPWR VGND sg13g2_decap_8
XFILLER_10_319 VPWR VGND sg13g2_decap_8
XFILLER_11_809 VPWR VGND sg13g2_decap_8
XFILLER_22_179 VPWR VGND sg13g2_decap_8
XFILLER_2_529 VPWR VGND sg13g2_decap_8
XFILLER_26_430 VPWR VGND sg13g2_decap_8
XFILLER_45_238 VPWR VGND sg13g2_decap_8
XFILLER_46_728 VPWR VGND sg13g2_decap_8
XFILLER_13_102 VPWR VGND sg13g2_decap_8
XFILLER_13_179 VPWR VGND sg13g2_decap_8
XFILLER_27_997 VPWR VGND sg13g2_decap_8
XFILLER_41_455 VPWR VGND sg13g2_decap_8
XFILLER_42_42 VPWR VGND sg13g2_decap_8
XFILLER_42_945 VPWR VGND sg13g2_decap_8
X_292_ net23 VGND VPWR _018_ phy_0.lit_count\[4\] clknet_3_6__leaf_clk_regs sg13g2_dfrbpq_1
XFILLER_10_886 VPWR VGND sg13g2_decap_8
XFILLER_6_879 VPWR VGND sg13g2_decap_8
XFILLER_6_802 VPWR VGND sg13g2_decap_8
XFILLER_5_389 VPWR VGND sg13g2_decap_8
XFILLER_5_312 VPWR VGND sg13g2_decap_8
XFILLER_1_595 VPWR VGND sg13g2_decap_8
XFILLER_3_25 VPWR VGND sg13g2_decap_8
XFILLER_49_522 VPWR VGND sg13g2_decap_8
XFILLER_17_441 VPWR VGND sg13g2_decap_8
XFILLER_18_997 VPWR VGND sg13g2_decap_8
XFILLER_36_249 VPWR VGND sg13g2_decap_8
XFILLER_49_599 VPWR VGND sg13g2_decap_8
XFILLER_32_466 VPWR VGND sg13g2_decap_8
XFILLER_34_1011 VPWR VGND sg13g2_decap_8
XFILLER_9_662 VPWR VGND sg13g2_decap_8
XFILLER_8_172 VPWR VGND sg13g2_decap_8
XFILLER_27_238 VPWR VGND sg13g2_decap_8
XFILLER_41_1015 VPWR VGND sg13g2_decap_8
XFILLER_10_116 VPWR VGND sg13g2_decap_8
XFILLER_11_606 VPWR VGND sg13g2_decap_8
XFILLER_23_433 VPWR VGND sg13g2_decap_8
XFILLER_12_67 VPWR VGND sg13g2_decap_8
XFILLER_3_816 VPWR VGND sg13g2_decap_8
XFILLER_6_109 VPWR VGND sg13g2_decap_8
XFILLER_2_326 VPWR VGND sg13g2_decap_8
XFILLER_18_249 VPWR VGND sg13g2_decap_8
XFILLER_26_260 VPWR VGND sg13g2_decap_8
XFILLER_37_42 VPWR VGND sg13g2_decap_8
XFILLER_46_525 VPWR VGND sg13g2_decap_8
XFILLER_14_466 VPWR VGND sg13g2_decap_8
XFILLER_30_948 VPWR VGND sg13g2_decap_8
XFILLER_42_742 VPWR VGND sg13g2_decap_8
X_275_ net20 VGND VPWR net50 phy_0.tx_en_dd clknet_3_2__leaf_clk_regs sg13g2_dfrbpq_1
XFILLER_10_683 VPWR VGND sg13g2_decap_8
XFILLER_45_7 VPWR VGND sg13g2_decap_8
XFILLER_6_676 VPWR VGND sg13g2_decap_8
XFILLER_5_186 VPWR VGND sg13g2_decap_8
XFILLER_1_392 VPWR VGND sg13g2_decap_8
XFILLER_2_893 VPWR VGND sg13g2_decap_8
XFILLER_49_396 VPWR VGND sg13g2_decap_8
XFILLER_21_948 VPWR VGND sg13g2_decap_8
XFILLER_20_469 VPWR VGND sg13g2_decap_8
XFILLER_0_819 VPWR VGND sg13g2_decap_8
XFILLER_43_517 VPWR VGND sg13g2_decap_8
XFILLER_11_403 VPWR VGND sg13g2_decap_8
XFILLER_12_948 VPWR VGND sg13g2_decap_8
XFILLER_23_11 VPWR VGND sg13g2_decap_4
XFILLER_23_230 VPWR VGND sg13g2_decap_8
XFILLER_23_55 VPWR VGND sg13g2_decap_8
XFILLER_2_123 VPWR VGND sg13g2_decap_8
XFILLER_3_613 VPWR VGND sg13g2_decap_8
XFILLER_46_322 VPWR VGND sg13g2_decap_8
XFILLER_48_63 VPWR VGND sg13g2_decap_8
XFILLER_47_812 VPWR VGND sg13g2_decap_8
XFILLER_14_263 VPWR VGND sg13g2_decap_8
XFILLER_46_399 VPWR VGND sg13g2_decap_8
XFILLER_47_889 VPWR VGND sg13g2_decap_8
XFILLER_10_480 VPWR VGND sg13g2_decap_8
XFILLER_11_970 VPWR VGND sg13g2_decap_8
XFILLER_31_1025 VPWR VGND sg13g2_decap_4
X_189_ _055_ _058_ _059_ VPWR VGND sg13g2_and2_1
X_258_ net18 phy_0.txd_dd\[0\] _107_ VPWR VGND sg13g2_nor2_1
XFILLER_9_46 VPWR VGND sg13g2_decap_8
XFILLER_7_952 VPWR VGND sg13g2_decap_8
XFILLER_2_690 VPWR VGND sg13g2_decap_8
XFILLER_9_1026 VPWR VGND sg13g2_fill_2
XFILLER_6_473 VPWR VGND sg13g2_decap_8
XFILLER_37_300 VPWR VGND sg13g2_decap_8
XFILLER_37_355 VPWR VGND sg13g2_decap_8
XFILLER_49_193 VPWR VGND sg13g2_decap_8
XFILLER_20_266 VPWR VGND sg13g2_decap_8
Xclkbuf_3_3__f_clk_regs clknet_3_3__leaf_clk_regs clknet_0_clk_regs VPWR VGND sg13g2_buf_16
XFILLER_0_616 VPWR VGND sg13g2_decap_8
XFILLER_18_11 VPWR VGND sg13g2_decap_4
XFILLER_47_119 VPWR VGND sg13g2_decap_8
XFILLER_48_609 VPWR VGND sg13g2_decap_8
XFILLER_18_88 VPWR VGND sg13g2_decap_8
XFILLER_28_366 VPWR VGND sg13g2_decap_8
XFILLER_34_21 VPWR VGND sg13g2_decap_8
XFILLER_43_314 VPWR VGND sg13g2_decap_8
XFILLER_44_826 VPWR VGND sg13g2_decap_8
XFILLER_11_200 VPWR VGND sg13g2_decap_8
XFILLER_11_277 VPWR VGND sg13g2_decap_8
XFILLER_7_259 VPWR VGND sg13g2_decap_8
XFILLER_4_900 VPWR VGND sg13g2_decap_8
XFILLER_1_0 VPWR VGND sg13g2_decap_8
XFILLER_3_410 VPWR VGND sg13g2_decap_8
XFILLER_3_487 VPWR VGND sg13g2_decap_8
XFILLER_4_977 VPWR VGND sg13g2_decap_8
XFILLER_19_366 VPWR VGND sg13g2_decap_8
XFILLER_38_119 VPWR VGND sg13g2_decap_4
XFILLER_47_686 VPWR VGND sg13g2_decap_8
XFILLER_43_881 VPWR VGND sg13g2_decap_8
XFILLER_46_196 VPWR VGND sg13g2_decap_8
XFILLER_6_270 VPWR VGND sg13g2_decap_8
XFILLER_29_108 VPWR VGND sg13g2_decap_4
XFILLER_34_0 VPWR VGND sg13g2_decap_8
XFILLER_1_91 VPWR VGND sg13g2_decap_8
XFILLER_0_413 VPWR VGND sg13g2_decap_8
XFILLER_1_903 VPWR VGND sg13g2_decap_8
XFILLER_4_207 VPWR VGND sg13g2_decap_8
XFILLER_49_907 VPWR VGND sg13g2_decap_8
XFILLER_29_32 VPWR VGND sg13g2_decap_8
XFILLER_44_623 VPWR VGND sg13g2_decap_8
Xhold98 _072_ VPWR VGND net98 sg13g2_dlygate4sd3_1
Xhold87 phy_0.lit_count\[9\] VPWR VGND net87 sg13g2_dlygate4sd3_1
Xhold76 phy_0.cycle_count\[1\] VPWR VGND net76 sg13g2_dlygate4sd3_1
Xhold65 _061_ VPWR VGND net65 sg13g2_dlygate4sd3_1
Xhold54 phy_0.lit_count\[20\] VPWR VGND net54 sg13g2_dlygate4sd3_1
XFILLER_48_406 VPWR VGND sg13g2_decap_8
XFILLER_16_347 VPWR VGND sg13g2_decap_8
XFILLER_24_391 VPWR VGND sg13g2_decap_8
XFILLER_43_133 VPWR VGND sg13g2_decap_8
XFILLER_45_42 VPWR VGND sg13g2_decap_8
XFILLER_8_557 VPWR VGND sg13g2_decap_8
XFILLER_6_25 VPWR VGND sg13g2_decap_8
XFILLER_0_980 VPWR VGND sg13g2_decap_8
XFILLER_3_284 VPWR VGND sg13g2_decap_8
XFILLER_4_774 VPWR VGND sg13g2_decap_8
XFILLER_19_163 VPWR VGND sg13g2_decap_8
XFILLER_47_483 VPWR VGND sg13g2_decap_8
XFILLER_48_973 VPWR VGND sg13g2_decap_8
XFILLER_30_372 VPWR VGND sg13g2_decap_8
XFILLER_39_962 VPWR VGND sg13g2_decap_8
Xheichips25_ethernet_36 VPWR VGND uo_out[0] sg13g2_tielo
XFILLER_15_67 VPWR VGND sg13g2_decap_8
XFILLER_25_100 VPWR VGND sg13g2_decap_8
XFILLER_40_147 VPWR VGND sg13g2_decap_8
XFILLER_41_637 VPWR VGND sg13g2_decap_8
XFILLER_21_361 VPWR VGND sg13g2_decap_8
XFILLER_31_44 VPWR VGND sg13g2_decap_8
XFILLER_0_210 VPWR VGND sg13g2_decap_8
XFILLER_0_287 VPWR VGND sg13g2_decap_8
XFILLER_1_700 VPWR VGND sg13g2_decap_8
XFILLER_1_777 VPWR VGND sg13g2_decap_8
Xoutput9 net9 uio_out[1] VPWR VGND sg13g2_buf_1
Xoutput11 net11 uio_out[3] VPWR VGND sg13g2_buf_1
XFILLER_49_704 VPWR VGND sg13g2_decap_8
XFILLER_48_203 VPWR VGND sg13g2_decap_8
XFILLER_16_144 VPWR VGND sg13g2_decap_8
XFILLER_44_420 VPWR VGND sg13g2_decap_8
XFILLER_45_910 VPWR VGND sg13g2_decap_8
XFILLER_45_987 VPWR VGND sg13g2_decap_8
XFILLER_12_361 VPWR VGND sg13g2_decap_8
XFILLER_44_497 VPWR VGND sg13g2_decap_8
XFILLER_9_844 VPWR VGND sg13g2_decap_8
XFILLER_8_354 VPWR VGND sg13g2_decap_8
XFILLER_4_571 VPWR VGND sg13g2_decap_8
XFILLER_39_225 VPWR VGND sg13g2_decap_8
XFILLER_48_770 VPWR VGND sg13g2_decap_8
XFILLER_22_158 VPWR VGND sg13g2_decap_8
XFILLER_35_486 VPWR VGND sg13g2_decap_8
XFILLER_36_976 VPWR VGND sg13g2_decap_8
XFILLER_47_280 VPWR VGND sg13g2_decap_8
XFILLER_11_1012 VPWR VGND sg13g2_decap_8
XFILLER_2_508 VPWR VGND sg13g2_decap_8
XFILLER_26_11 VPWR VGND sg13g2_decap_8
XFILLER_26_22 VPWR VGND sg13g2_decap_8
XFILLER_26_33 VPWR VGND sg13g2_fill_2
XFILLER_27_976 VPWR VGND sg13g2_decap_8
XFILLER_45_217 VPWR VGND sg13g2_decap_8
XFILLER_46_707 VPWR VGND sg13g2_decap_8
XFILLER_13_158 VPWR VGND sg13g2_decap_8
XFILLER_26_486 VPWR VGND sg13g2_decap_8
XFILLER_41_434 VPWR VGND sg13g2_decap_8
XFILLER_42_21 VPWR VGND sg13g2_decap_8
XFILLER_42_924 VPWR VGND sg13g2_decap_8
X_291_ net23 VGND VPWR net91 phy_0.lit_count\[3\] clknet_3_6__leaf_clk_regs sg13g2_dfrbpq_1
XFILLER_10_865 VPWR VGND sg13g2_decap_8
XFILLER_42_98 VPWR VGND sg13g2_decap_8
XFILLER_6_858 VPWR VGND sg13g2_decap_8
XFILLER_5_368 VPWR VGND sg13g2_decap_8
XFILLER_1_574 VPWR VGND sg13g2_decap_8
XFILLER_36_217 VPWR VGND sg13g2_decap_8
XFILLER_49_578 VPWR VGND sg13g2_decap_8
XFILLER_49_501 VPWR VGND sg13g2_decap_8
XFILLER_17_420 VPWR VGND sg13g2_decap_8
XFILLER_18_976 VPWR VGND sg13g2_decap_8
XFILLER_29_291 VPWR VGND sg13g2_decap_8
XFILLER_32_445 VPWR VGND sg13g2_decap_8
XFILLER_44_294 VPWR VGND sg13g2_decap_8
XFILLER_45_784 VPWR VGND sg13g2_decap_8
XFILLER_9_641 VPWR VGND sg13g2_decap_8
XFILLER_8_151 VPWR VGND sg13g2_decap_8
XFILLER_27_217 VPWR VGND sg13g2_decap_8
XFILLER_23_412 VPWR VGND sg13g2_decap_8
XFILLER_23_489 VPWR VGND sg13g2_decap_4
XFILLER_32_990 VPWR VGND sg13g2_decap_8
XFILLER_35_250 VPWR VGND sg13g2_decap_8
XFILLER_12_46 VPWR VGND sg13g2_decap_8
XFILLER_2_305 VPWR VGND sg13g2_decap_8
XFILLER_37_21 VPWR VGND sg13g2_decap_8
XFILLER_46_504 VPWR VGND sg13g2_decap_8
XFILLER_14_445 VPWR VGND sg13g2_decap_8
XFILLER_18_1018 VPWR VGND sg13g2_decap_8
XFILLER_18_228 VPWR VGND sg13g2_decap_8
XFILLER_37_98 VPWR VGND sg13g2_decap_8
XFILLER_41_242 VPWR VGND sg13g2_fill_2
XFILLER_42_721 VPWR VGND sg13g2_decap_8
XFILLER_10_662 VPWR VGND sg13g2_decap_8
XFILLER_23_990 VPWR VGND sg13g2_decap_8
XFILLER_41_286 VPWR VGND sg13g2_fill_1
XFILLER_41_297 VPWR VGND sg13g2_decap_8
XFILLER_42_798 VPWR VGND sg13g2_decap_8
X_274_ net21 VGND VPWR net74 phy_0.enc_buf\[3\] clknet_3_3__leaf_clk_regs sg13g2_dfrbpq_1
XFILLER_1_371 VPWR VGND sg13g2_decap_8
XFILLER_2_872 VPWR VGND sg13g2_decap_8
XFILLER_38_7 VPWR VGND sg13g2_decap_8
XFILLER_6_655 VPWR VGND sg13g2_decap_8
XFILLER_5_165 VPWR VGND sg13g2_decap_8
XFILLER_24_209 VPWR VGND sg13g2_decap_8
XFILLER_49_375 VPWR VGND sg13g2_decap_8
XFILLER_14_990 VPWR VGND sg13g2_decap_8
XFILLER_17_294 VPWR VGND sg13g2_decap_8
XFILLER_20_448 VPWR VGND sg13g2_decap_8
XFILLER_32_264 VPWR VGND sg13g2_decap_8
XFILLER_45_581 VPWR VGND sg13g2_decap_8
Xclkbuf_3_2__f_clk_regs clknet_3_2__leaf_clk_regs clknet_0_clk_regs VPWR VGND sg13g2_buf_16
XFILLER_11_459 VPWR VGND sg13g2_decap_8
XFILLER_23_286 VPWR VGND sg13g2_decap_8
XFILLER_2_102 VPWR VGND sg13g2_decap_8
XFILLER_2_179 VPWR VGND sg13g2_decap_8
XFILLER_3_4 VPWR VGND sg13g2_decap_8
XFILLER_3_669 VPWR VGND sg13g2_decap_8
XFILLER_0_49 VPWR VGND sg13g2_decap_8
XFILLER_24_1011 VPWR VGND sg13g2_decap_8
XFILLER_46_301 VPWR VGND sg13g2_decap_8
XFILLER_48_42 VPWR VGND sg13g2_decap_8
XFILLER_47_868 VPWR VGND sg13g2_decap_8
XFILLER_14_242 VPWR VGND sg13g2_decap_8
XFILLER_42_595 VPWR VGND sg13g2_decap_8
XFILLER_46_378 VPWR VGND sg13g2_decap_8
XFILLER_9_25 VPWR VGND sg13g2_decap_8
XFILLER_31_1004 VPWR VGND sg13g2_decap_8
X_188_ net64 phy_0.lit_count\[6\] _058_ VPWR VGND sg13g2_and2_1
X_257_ net18 net67 _095_ _106_ VPWR VGND sg13g2_nor3_1
XFILLER_7_931 VPWR VGND sg13g2_decap_8
XFILLER_6_452 VPWR VGND sg13g2_decap_8
XFILLER_9_1005 VPWR VGND sg13g2_decap_8
XFILLER_49_172 VPWR VGND sg13g2_decap_8
XFILLER_20_245 VPWR VGND sg13g2_decap_8
XFILLER_47_1022 VPWR VGND sg13g2_decap_8
XFILLER_18_67 VPWR VGND sg13g2_decap_8
XFILLER_28_345 VPWR VGND sg13g2_decap_8
XFILLER_44_805 VPWR VGND sg13g2_decap_8
XFILLER_11_256 VPWR VGND sg13g2_decap_8
XFILLER_8_739 VPWR VGND sg13g2_decap_8
XFILLER_7_238 VPWR VGND sg13g2_decap_8
XFILLER_3_466 VPWR VGND sg13g2_decap_8
XFILLER_4_956 VPWR VGND sg13g2_decap_8
XFILLER_19_345 VPWR VGND sg13g2_decap_8
XFILLER_34_359 VPWR VGND sg13g2_decap_8
XFILLER_46_175 VPWR VGND sg13g2_decap_8
XFILLER_47_665 VPWR VGND sg13g2_decap_8
XFILLER_42_392 VPWR VGND sg13g2_decap_8
XFILLER_43_860 VPWR VGND sg13g2_decap_8
X_309_ net44 VGND VPWR _024_ in_n clknet_3_5__leaf_clk_regs sg13g2_dfrbpq_1
XFILLER_27_0 VPWR VGND sg13g2_decap_8
XFILLER_1_70 VPWR VGND sg13g2_decap_8
XFILLER_25_326 VPWR VGND sg13g2_decap_8
XFILLER_41_819 VPWR VGND sg13g2_decap_8
XFILLER_33_392 VPWR VGND sg13g2_decap_8
XFILLER_0_469 VPWR VGND sg13g2_decap_8
XFILLER_1_959 VPWR VGND sg13g2_decap_8
XFILLER_29_11 VPWR VGND sg13g2_decap_8
XFILLER_16_326 VPWR VGND sg13g2_decap_8
XFILLER_21_1025 VPWR VGND sg13g2_decap_4
XFILLER_29_88 VPWR VGND sg13g2_decap_4
XFILLER_43_112 VPWR VGND sg13g2_decap_8
XFILLER_44_602 VPWR VGND sg13g2_decap_8
XFILLER_45_21 VPWR VGND sg13g2_decap_8
Xhold99 phy_0.lit_count\[19\] VPWR VGND net99 sg13g2_dlygate4sd3_1
Xhold88 _063_ VPWR VGND net88 sg13g2_dlygate4sd3_1
Xhold77 _030_ VPWR VGND net77 sg13g2_dlygate4sd3_1
Xhold66 _021_ VPWR VGND net66 sg13g2_dlygate4sd3_1
Xhold55 _089_ VPWR VGND net55 sg13g2_dlygate4sd3_1
XFILLER_24_370 VPWR VGND sg13g2_decap_8
XFILLER_44_679 VPWR VGND sg13g2_decap_8
XFILLER_45_98 VPWR VGND sg13g2_decap_8
XFILLER_8_536 VPWR VGND sg13g2_decap_8
XFILLER_3_263 VPWR VGND sg13g2_decap_8
XFILLER_4_753 VPWR VGND sg13g2_decap_8
XFILLER_6_1019 VPWR VGND sg13g2_decap_8
XFILLER_48_952 VPWR VGND sg13g2_decap_8
XFILLER_19_142 VPWR VGND sg13g2_decap_8
XFILLER_34_156 VPWR VGND sg13g2_decap_8
XFILLER_47_462 VPWR VGND sg13g2_decap_8
XFILLER_30_351 VPWR VGND sg13g2_decap_8
XFILLER_25_123 VPWR VGND sg13g2_fill_1
XFILLER_38_473 VPWR VGND sg13g2_decap_8
Xheichips25_ethernet_26 VPWR VGND uio_oe[1] sg13g2_tielo
Xheichips25_ethernet_37 VPWR VGND uo_out[1] sg13g2_tielo
XFILLER_15_46 VPWR VGND sg13g2_decap_8
XFILLER_21_340 VPWR VGND sg13g2_decap_8
XFILLER_40_126 VPWR VGND sg13g2_decap_8
XFILLER_41_616 VPWR VGND sg13g2_decap_8
Xoutput12 net12 uio_out[4] VPWR VGND sg13g2_buf_1
XFILLER_0_266 VPWR VGND sg13g2_decap_8
XFILLER_1_756 VPWR VGND sg13g2_decap_8
XFILLER_48_259 VPWR VGND sg13g2_decap_8
XFILLER_16_123 VPWR VGND sg13g2_decap_8