*SPEF "ieee 1481-1999"
*DESIGN "heichips25_ethernet"
*DATE "17:51:52 Monday March 09, 2026"
*VENDOR "The OpenROAD Project"
*PROGRAM "OpenROAD"
*VERSION "dfc4f595dfb2e1c346492ff1f0274abb28725acf"
*DESIGN_FLOW "NAME_SCOPE LOCAL" "PIN_CAP NONE"
*DIVIDER /
*DELIMITER :
*BUS_DELIMITER []
*T_UNIT 1 NS
*C_UNIT 1 PF
*R_UNIT 1 OHM
*L_UNIT 1 HENRY

*NAME_MAP
*3 clk
*4 ena
*5 ethernet_dn
*6 ethernet_dp
*7 rst_n
*8 ui_in[0]
*9 ui_in[1]
*10 ui_in[2]
*11 ui_in[3]
*12 ui_in[4]
*13 ui_in[5]
*14 ui_in[6]
*15 ui_in[7]
*16 uio_in[0]
*17 uio_in[1]
*18 uio_in[2]
*19 uio_in[3]
*20 uio_in[4]
*21 uio_in[5]
*22 uio_in[6]
*23 uio_in[7]
*24 net
*25 net26
*26 net27
*27 net28
*28 net29
*29 net30
*30 net31
*31 net32
*32 net33
*33 uio_out[1]
*34 uio_out[2]
*35 uio_out[3]
*36 uio_out[4]
*37 uio_out[5]
*38 net34
*39 net35
*40 net36
*41 net37
*42 net38
*43 net39
*44 net40
*45 net41
*46 net42
*47 net43
*48 _000_
*49 _001_
*50 _002_
*51 _003_
*52 _004_
*53 _005_
*54 _006_
*55 _007_
*56 _008_
*57 _009_
*58 _010_
*59 _011_
*60 _012_
*61 _013_
*62 _014_
*63 _015_
*64 _016_
*65 _017_
*66 _018_
*67 _019_
*68 _020_
*69 _021_
*70 _022_
*71 _023_
*72 _024_
*73 _025_
*74 _026_
*75 _027_
*76 _028_
*77 _029_
*78 _030_
*79 _031_
*80 _032_
*81 _033_
*82 _034_
*83 _035_
*84 _036_
*85 _037_
*86 _038_
*87 _039_
*88 _040_
*89 _041_
*90 _042_
*91 _043_
*92 _044_
*93 _045_
*94 _046_
*95 _047_
*96 _048_
*97 _049_
*98 _050_
*99 _051_
*100 _052_
*101 _053_
*102 _054_
*103 _055_
*104 _056_
*105 _057_
*106 _058_
*107 _059_
*108 _060_
*109 _061_
*110 _062_
*111 _063_
*112 _064_
*113 _065_
*114 _066_
*115 _067_
*116 _068_
*117 _069_
*118 _070_
*119 _071_
*120 _072_
*121 _073_
*122 _074_
*123 _075_
*124 _076_
*125 _077_
*126 _078_
*127 _079_
*128 _080_
*129 _081_
*130 _082_
*131 _083_
*132 _084_
*133 _085_
*134 _086_
*135 _087_
*136 _088_
*137 _089_
*138 _090_
*139 _091_
*140 _092_
*141 _093_
*142 _094_
*143 _095_
*144 _096_
*145 _097_
*146 _098_
*147 _099_
*148 _100_
*149 _101_
*150 _102_
*151 _103_
*152 _104_
*153 _105_
*154 _106_
*155 _107_
*156 _108_
*157 _109_
*158 _110_
*159 _111_
*160 _112_
*161 _113_
*162 _114_
*163 _115_
*164 _116_
*165 _117_
*166 _118_
*167 _119_
*168 _120_
*169 _121_
*170 _122_
*171 _123_
*172 _124_
*173 _125_
*174 _126_
*175 _127_
*176 _128_
*177 _129_
*178 _130_
*179 _131_
*180 _132_
*181 clk_regs
*182 clknet_0_clk
*183 clknet_0_clk_regs
*184 clknet_1_0__leaf_clk
*185 clknet_3_0__leaf_clk_regs
*186 clknet_3_1__leaf_clk_regs
*187 clknet_3_2__leaf_clk_regs
*188 clknet_3_3__leaf_clk_regs
*189 clknet_3_4__leaf_clk_regs
*190 clknet_3_5__leaf_clk_regs
*191 clknet_3_6__leaf_clk_regs
*192 clknet_3_7__leaf_clk_regs
*193 in_n
*194 in_p
*195 net1
*196 net10
*197 net100
*198 net101
*199 net102
*200 net103
*201 net104
*202 net105
*203 net106
*204 net107
*205 net108
*206 net109
*207 net11
*208 net110
*209 net111
*210 net112
*211 net113
*212 net114
*213 net115
*214 net116
*215 net117
*216 net118
*217 net119
*218 net12
*219 net120
*220 net121
*221 net122
*222 net13
*223 net14
*224 net15
*225 net16
*226 net17
*227 net18
*228 net19
*229 net2
*230 net20
*231 net21
*232 net22
*233 net23
*234 net24
*235 net25
*236 net3
*237 net4
*238 net44
*239 net45
*240 net46
*241 net47
*242 net48
*243 net49
*244 net5
*245 net50
*246 net51
*247 net52
*248 net53
*249 net54
*250 net55
*251 net56
*252 net57
*253 net58
*254 net59
*255 net6
*256 net60
*257 net61
*258 net62
*259 net63
*260 net64
*261 net65
*262 net66
*263 net67
*264 net68
*265 net69
*266 net7
*267 net70
*268 net71
*269 net72
*270 net73
*271 net74
*272 net75
*273 net76
*274 net77
*275 net78
*276 net79
*277 net8
*278 net80
*279 net81
*280 net82
*281 net83
*282 net84
*283 net85
*284 net86
*285 net87
*286 net88
*287 net89
*288 net9
*289 net90
*290 net91
*291 net92
*292 net93
*293 net94
*294 net95
*295 net96
*296 net97
*297 net98
*298 net99
*299 phy_0\.cycle_count\[1\]
*300 phy_0\.cycle_count\[2\]
*301 phy_0\.do_nlp
*302 phy_0\.enc_buf\[0\]
*303 phy_0\.enc_buf\[1\]
*304 phy_0\.enc_buf\[2\]
*305 phy_0\.enc_buf\[3\]
*306 phy_0\.enc_count\[0\]
*307 phy_0\.enc_count\[1\]
*308 phy_0\.enc_count\[2\]
*309 phy_0\.lit_count\[0\]
*310 phy_0\.lit_count\[10\]
*311 phy_0\.lit_count\[11\]
*312 phy_0\.lit_count\[12\]
*313 phy_0\.lit_count\[13\]
*314 phy_0\.lit_count\[14\]
*315 phy_0\.lit_count\[15\]
*316 phy_0\.lit_count\[16\]
*317 phy_0\.lit_count\[17\]
*318 phy_0\.lit_count\[18\]
*319 phy_0\.lit_count\[19\]
*320 phy_0\.lit_count\[1\]
*321 phy_0\.lit_count\[20\]
*322 phy_0\.lit_count\[2\]
*323 phy_0\.lit_count\[3\]
*324 phy_0\.lit_count\[4\]
*325 phy_0\.lit_count\[5\]
*326 phy_0\.lit_count\[6\]
*327 phy_0\.lit_count\[7\]
*328 phy_0\.lit_count\[8\]
*329 phy_0\.lit_count\[9\]
*330 phy_0\.mdc_d
*331 phy_0\.mdc_dd
*332 phy_0\.mdio_i_d
*333 phy_0\.mdio_i_dd
*334 phy_0\.ref_clk_d
*335 phy_0\.ref_clk_dd
*336 phy_0\.tx_en_d
*337 phy_0\.tx_en_dd
*338 phy_0\.txd_d\[0\]
*339 phy_0\.txd_d\[1\]
*340 phy_0\.txd_dd\[0\]
*341 phy_0\.txd_dd\[1\]
*342 FILLER_0_0
*343 FILLER_0_1001
*344 FILLER_0_1008
*345 FILLER_0_1015
*346 FILLER_0_1022
*347 FILLER_0_105
*348 FILLER_0_112
*349 FILLER_0_119
*350 FILLER_0_126
*351 FILLER_0_133
*352 FILLER_0_14
*353 FILLER_0_140
*354 FILLER_0_147
*355 FILLER_0_154
*356 FILLER_0_161
*357 FILLER_0_168
*358 FILLER_0_175
*359 FILLER_0_182
*360 FILLER_0_189
*361 FILLER_0_196
*362 FILLER_0_203
*363 FILLER_0_21
*364 FILLER_0_210
*365 FILLER_0_217
*366 FILLER_0_224
*367 FILLER_0_231
*368 FILLER_0_238
*369 FILLER_0_245
*370 FILLER_0_252
*371 FILLER_0_259
*372 FILLER_0_266
*373 FILLER_0_273
*374 FILLER_0_28
*375 FILLER_0_280
*376 FILLER_0_287
*377 FILLER_0_294
*378 FILLER_0_301
*379 FILLER_0_308
*380 FILLER_0_315
*381 FILLER_0_322
*382 FILLER_0_329
*383 FILLER_0_336
*384 FILLER_0_343
*385 FILLER_0_35
*386 FILLER_0_350
*387 FILLER_0_357
*388 FILLER_0_364
*389 FILLER_0_371
*390 FILLER_0_378
*391 FILLER_0_385
*392 FILLER_0_392
*393 FILLER_0_399
*394 FILLER_0_406
*395 FILLER_0_413
*396 FILLER_0_42
*397 FILLER_0_420
*398 FILLER_0_427
*399 FILLER_0_434
*400 FILLER_0_441
*401 FILLER_0_448
*402 FILLER_0_455
*403 FILLER_0_462
*404 FILLER_0_469
*405 FILLER_0_476
*406 FILLER_0_483
*407 FILLER_0_49
*408 FILLER_0_490
*409 FILLER_0_497
*410 FILLER_0_504
*411 FILLER_0_511
*412 FILLER_0_518
*413 FILLER_0_525
*414 FILLER_0_532
*415 FILLER_0_539
*416 FILLER_0_546
*417 FILLER_0_553
*418 FILLER_0_56
*419 FILLER_0_560
*420 FILLER_0_567
*421 FILLER_0_574
*422 FILLER_0_581
*423 FILLER_0_588
*424 FILLER_0_595
*425 FILLER_0_602
*426 FILLER_0_609
*427 FILLER_0_616
*428 FILLER_0_623
*429 FILLER_0_63
*430 FILLER_0_630
*431 FILLER_0_637
*432 FILLER_0_644
*433 FILLER_0_651
*434 FILLER_0_658
*435 FILLER_0_665
*436 FILLER_0_672
*437 FILLER_0_679
*438 FILLER_0_686
*439 FILLER_0_693
*440 FILLER_0_7
*441 FILLER_0_70
*442 FILLER_0_700
*443 FILLER_0_707
*444 FILLER_0_714
*445 FILLER_0_721
*446 FILLER_0_728
*447 FILLER_0_735
*448 FILLER_0_742
*449 FILLER_0_749
*450 FILLER_0_756
*451 FILLER_0_763
*452 FILLER_0_77
*453 FILLER_0_770
*454 FILLER_0_777
*455 FILLER_0_784
*456 FILLER_0_791
*457 FILLER_0_798
*458 FILLER_0_805
*459 FILLER_0_812
*460 FILLER_0_819
*461 FILLER_0_826
*462 FILLER_0_833
*463 FILLER_0_84
*464 FILLER_0_840
*465 FILLER_0_847
*466 FILLER_0_854
*467 FILLER_0_861
*468 FILLER_0_868
*469 FILLER_0_875
*470 FILLER_0_882
*471 FILLER_0_889
*472 FILLER_0_896
*473 FILLER_0_903
*474 FILLER_0_91
*475 FILLER_0_910
*476 FILLER_0_917
*477 FILLER_0_924
*478 FILLER_0_931
*479 FILLER_0_938
*480 FILLER_0_945
*481 FILLER_0_952
*482 FILLER_0_959
*483 FILLER_0_966
*484 FILLER_0_973
*485 FILLER_0_98
*486 FILLER_0_980
*487 FILLER_0_987
*488 FILLER_0_994
*489 FILLER_10_1005
*490 FILLER_10_1012
*491 FILLER_10_1019
*492 FILLER_10_102
*493 FILLER_10_1026
*494 FILLER_10_1028
*495 FILLER_10_109
*496 FILLER_10_11
*497 FILLER_10_116
*498 FILLER_10_123
*499 FILLER_10_130
*500 FILLER_10_137
*501 FILLER_10_144
*502 FILLER_10_151
*503 FILLER_10_158
*504 FILLER_10_165
*505 FILLER_10_172
*506 FILLER_10_179
*507 FILLER_10_18
*508 FILLER_10_186
*509 FILLER_10_193
*510 FILLER_10_200
*511 FILLER_10_207
*512 FILLER_10_214
*513 FILLER_10_221
*514 FILLER_10_228
*515 FILLER_10_235
*516 FILLER_10_242
*517 FILLER_10_249
*518 FILLER_10_25
*519 FILLER_10_256
*520 FILLER_10_263
*521 FILLER_10_270
*522 FILLER_10_277
*523 FILLER_10_284
*524 FILLER_10_291
*525 FILLER_10_298
*526 FILLER_10_305
*527 FILLER_10_312
*528 FILLER_10_319
*529 FILLER_10_32
*530 FILLER_10_326
*531 FILLER_10_333
*532 FILLER_10_340
*533 FILLER_10_347
*534 FILLER_10_354
*535 FILLER_10_361
*536 FILLER_10_368
*537 FILLER_10_375
*538 FILLER_10_382
*539 FILLER_10_389
*540 FILLER_10_39
*541 FILLER_10_396
*542 FILLER_10_4
*543 FILLER_10_403
*544 FILLER_10_410
*545 FILLER_10_417
*546 FILLER_10_424
*547 FILLER_10_431
*548 FILLER_10_438
*549 FILLER_10_445
*550 FILLER_10_452
*551 FILLER_10_459
*552 FILLER_10_46
*553 FILLER_10_466
*554 FILLER_10_473
*555 FILLER_10_480
*556 FILLER_10_487
*557 FILLER_10_494
*558 FILLER_10_501
*559 FILLER_10_508
*560 FILLER_10_515
*561 FILLER_10_522
*562 FILLER_10_529
*563 FILLER_10_53
*564 FILLER_10_536
*565 FILLER_10_543
*566 FILLER_10_550
*567 FILLER_10_557
*568 FILLER_10_564
*569 FILLER_10_571
*570 FILLER_10_578
*571 FILLER_10_585
*572 FILLER_10_592
*573 FILLER_10_599
*574 FILLER_10_60
*575 FILLER_10_606
*576 FILLER_10_613
*577 FILLER_10_620
*578 FILLER_10_627
*579 FILLER_10_634
*580 FILLER_10_641
*581 FILLER_10_648
*582 FILLER_10_655
*583 FILLER_10_662
*584 FILLER_10_669
*585 FILLER_10_67
*586 FILLER_10_676
*587 FILLER_10_683
*588 FILLER_10_690
*589 FILLER_10_697
*590 FILLER_10_704
*591 FILLER_10_711
*592 FILLER_10_718
*593 FILLER_10_725
*594 FILLER_10_732
*595 FILLER_10_739
*596 FILLER_10_74
*597 FILLER_10_746
*598 FILLER_10_753
*599 FILLER_10_760
*600 FILLER_10_767
*601 FILLER_10_774
*602 FILLER_10_781
*603 FILLER_10_788
*604 FILLER_10_795
*605 FILLER_10_802
*606 FILLER_10_809
*607 FILLER_10_81
*608 FILLER_10_816
*609 FILLER_10_823
*610 FILLER_10_830
*611 FILLER_10_837
*612 FILLER_10_844
*613 FILLER_10_851
*614 FILLER_10_858
*615 FILLER_10_865
*616 FILLER_10_872
*617 FILLER_10_879
*618 FILLER_10_88
*619 FILLER_10_886
*620 FILLER_10_893
*621 FILLER_10_900
*622 FILLER_10_907
*623 FILLER_10_914
*624 FILLER_10_921
*625 FILLER_10_928
*626 FILLER_10_935
*627 FILLER_10_942
*628 FILLER_10_949
*629 FILLER_10_95
*630 FILLER_10_956
*631 FILLER_10_963
*632 FILLER_10_970
*633 FILLER_10_977
*634 FILLER_10_984
*635 FILLER_10_991
*636 FILLER_10_998
*637 FILLER_11_1005
*638 FILLER_11_1012
*639 FILLER_11_1019
*640 FILLER_11_102
*641 FILLER_11_1026
*642 FILLER_11_1028
*643 FILLER_11_109
*644 FILLER_11_11
*645 FILLER_11_116
*646 FILLER_11_123
*647 FILLER_11_130
*648 FILLER_11_137
*649 FILLER_11_144
*650 FILLER_11_151
*651 FILLER_11_158
*652 FILLER_11_165
*653 FILLER_11_172
*654 FILLER_11_179
*655 FILLER_11_18
*656 FILLER_11_186
*657 FILLER_11_193
*658 FILLER_11_200
*659 FILLER_11_207
*660 FILLER_11_214
*661 FILLER_11_221
*662 FILLER_11_228
*663 FILLER_11_235
*664 FILLER_11_242
*665 FILLER_11_249
*666 FILLER_11_25
*667 FILLER_11_256
*668 FILLER_11_263
*669 FILLER_11_270
*670 FILLER_11_277
*671 FILLER_11_284
*672 FILLER_11_291
*673 FILLER_11_298
*674 FILLER_11_305
*675 FILLER_11_312
*676 FILLER_11_319
*677 FILLER_11_32
*678 FILLER_11_326
*679 FILLER_11_333
*680 FILLER_11_340
*681 FILLER_11_347
*682 FILLER_11_354
*683 FILLER_11_361
*684 FILLER_11_368
*685 FILLER_11_375
*686 FILLER_11_382
*687 FILLER_11_389
*688 FILLER_11_39
*689 FILLER_11_396
*690 FILLER_11_4
*691 FILLER_11_403
*692 FILLER_11_410
*693 FILLER_11_417
*694 FILLER_11_424
*695 FILLER_11_431
*696 FILLER_11_438
*697 FILLER_11_445
*698 FILLER_11_452
*699 FILLER_11_459
*700 FILLER_11_46
*701 FILLER_11_466
*702 FILLER_11_473
*703 FILLER_11_480
*704 FILLER_11_487
*705 FILLER_11_494
*706 FILLER_11_501
*707 FILLER_11_508
*708 FILLER_11_515
*709 FILLER_11_522
*710 FILLER_11_529
*711 FILLER_11_53
*712 FILLER_11_536
*713 FILLER_11_543
*714 FILLER_11_550
*715 FILLER_11_557
*716 FILLER_11_564
*717 FILLER_11_571
*718 FILLER_11_578
*719 FILLER_11_585
*720 FILLER_11_592
*721 FILLER_11_599
*722 FILLER_11_60
*723 FILLER_11_606
*724 FILLER_11_613
*725 FILLER_11_620
*726 FILLER_11_627
*727 FILLER_11_634
*728 FILLER_11_641
*729 FILLER_11_648
*730 FILLER_11_655
*731 FILLER_11_662
*732 FILLER_11_669
*733 FILLER_11_67
*734 FILLER_11_676
*735 FILLER_11_683
*736 FILLER_11_690
*737 FILLER_11_697
*738 FILLER_11_704
*739 FILLER_11_711
*740 FILLER_11_718
*741 FILLER_11_725
*742 FILLER_11_732
*743 FILLER_11_739
*744 FILLER_11_74
*745 FILLER_11_746
*746 FILLER_11_753
*747 FILLER_11_760
*748 FILLER_11_767
*749 FILLER_11_774
*750 FILLER_11_781
*751 FILLER_11_788
*752 FILLER_11_795
*753 FILLER_11_802
*754 FILLER_11_809
*755 FILLER_11_81
*756 FILLER_11_816
*757 FILLER_11_823
*758 FILLER_11_830
*759 FILLER_11_837
*760 FILLER_11_844
*761 FILLER_11_851
*762 FILLER_11_858
*763 FILLER_11_865
*764 FILLER_11_872
*765 FILLER_11_879
*766 FILLER_11_88
*767 FILLER_11_886
*768 FILLER_11_893
*769 FILLER_11_900
*770 FILLER_11_907
*771 FILLER_11_914
*772 FILLER_11_921
*773 FILLER_11_928
*774 FILLER_11_935
*775 FILLER_11_942
*776 FILLER_11_949
*777 FILLER_11_95
*778 FILLER_11_956
*779 FILLER_11_963
*780 FILLER_11_970
*781 FILLER_11_977
*782 FILLER_11_984
*783 FILLER_11_991
*784 FILLER_11_998
*785 FILLER_12_1004
*786 FILLER_12_1011
*787 FILLER_12_1018
*788 FILLER_12_102
*789 FILLER_12_109
*790 FILLER_12_11
*791 FILLER_12_116
*792 FILLER_12_123
*793 FILLER_12_130
*794 FILLER_12_137
*795 FILLER_12_144
*796 FILLER_12_151
*797 FILLER_12_158
*798 FILLER_12_165
*799 FILLER_12_172
*800 FILLER_12_179
*801 FILLER_12_18
*802 FILLER_12_186
*803 FILLER_12_193
*804 FILLER_12_200
*805 FILLER_12_207
*806 FILLER_12_214
*807 FILLER_12_221
*808 FILLER_12_228
*809 FILLER_12_235
*810 FILLER_12_242
*811 FILLER_12_249
*812 FILLER_12_25
*813 FILLER_12_256
*814 FILLER_12_263
*815 FILLER_12_270
*816 FILLER_12_277
*817 FILLER_12_284
*818 FILLER_12_291
*819 FILLER_12_298
*820 FILLER_12_305
*821 FILLER_12_312
*822 FILLER_12_319
*823 FILLER_12_32
*824 FILLER_12_326
*825 FILLER_12_333
*826 FILLER_12_340
*827 FILLER_12_347
*828 FILLER_12_354
*829 FILLER_12_361
*830 FILLER_12_368
*831 FILLER_12_375
*832 FILLER_12_382
*833 FILLER_12_389
*834 FILLER_12_39
*835 FILLER_12_396
*836 FILLER_12_4
*837 FILLER_12_403
*838 FILLER_12_410
*839 FILLER_12_417
*840 FILLER_12_424
*841 FILLER_12_431
*842 FILLER_12_438
*843 FILLER_12_445
*844 FILLER_12_452
*845 FILLER_12_459
*846 FILLER_12_46
*847 FILLER_12_466
*848 FILLER_12_473
*849 FILLER_12_480
*850 FILLER_12_487
*851 FILLER_12_53
*852 FILLER_12_60
*853 FILLER_12_67
*854 FILLER_12_74
*855 FILLER_12_81
*856 FILLER_12_88
*857 FILLER_12_948
*858 FILLER_12_95
*859 FILLER_12_955
*860 FILLER_12_962
*861 FILLER_12_969
*862 FILLER_12_976
*863 FILLER_12_983
*864 FILLER_12_990
*865 FILLER_12_997
*866 FILLER_13_1004
*867 FILLER_13_1011
*868 FILLER_13_1018
*869 FILLER_13_102
*870 FILLER_13_1025
*871 FILLER_13_109
*872 FILLER_13_11
*873 FILLER_13_116
*874 FILLER_13_123
*875 FILLER_13_130
*876 FILLER_13_137
*877 FILLER_13_144
*878 FILLER_13_151
*879 FILLER_13_158
*880 FILLER_13_165
*881 FILLER_13_172
*882 FILLER_13_179
*883 FILLER_13_18
*884 FILLER_13_186
*885 FILLER_13_193
*886 FILLER_13_200
*887 FILLER_13_207
*888 FILLER_13_214
*889 FILLER_13_221
*890 FILLER_13_228
*891 FILLER_13_235
*892 FILLER_13_242
*893 FILLER_13_249
*894 FILLER_13_25
*895 FILLER_13_256
*896 FILLER_13_263
*897 FILLER_13_270
*898 FILLER_13_277
*899 FILLER_13_284
*900 FILLER_13_291
*901 FILLER_13_298
*902 FILLER_13_305
*903 FILLER_13_312
*904 FILLER_13_319
*905 FILLER_13_32
*906 FILLER_13_326
*907 FILLER_13_333
*908 FILLER_13_340
*909 FILLER_13_347
*910 FILLER_13_354
*911 FILLER_13_361
*912 FILLER_13_368
*913 FILLER_13_375
*914 FILLER_13_382
*915 FILLER_13_389
*916 FILLER_13_39
*917 FILLER_13_396
*918 FILLER_13_4
*919 FILLER_13_403
*920 FILLER_13_410
*921 FILLER_13_417
*922 FILLER_13_424
*923 FILLER_13_431
*924 FILLER_13_438
*925 FILLER_13_445
*926 FILLER_13_452
*927 FILLER_13_459
*928 FILLER_13_46
*929 FILLER_13_466
*930 FILLER_13_473
*931 FILLER_13_480
*932 FILLER_13_487
*933 FILLER_13_53
*934 FILLER_13_60
*935 FILLER_13_67
*936 FILLER_13_74
*937 FILLER_13_81
*938 FILLER_13_88
*939 FILLER_13_948
*940 FILLER_13_95
*941 FILLER_13_955
*942 FILLER_13_962
*943 FILLER_13_969
*944 FILLER_13_976
*945 FILLER_13_983
*946 FILLER_13_990
*947 FILLER_13_997
*948 FILLER_14_1004
*949 FILLER_14_1011
*950 FILLER_14_1018
*951 FILLER_14_102
*952 FILLER_14_1025
*953 FILLER_14_109
*954 FILLER_14_11
*955 FILLER_14_116
*956 FILLER_14_123
*957 FILLER_14_130
*958 FILLER_14_137
*959 FILLER_14_144
*960 FILLER_14_151
*961 FILLER_14_158
*962 FILLER_14_165
*963 FILLER_14_172
*964 FILLER_14_179
*965 FILLER_14_18
*966 FILLER_14_186
*967 FILLER_14_193
*968 FILLER_14_20
*969 FILLER_14_200
*970 FILLER_14_207
*971 FILLER_14_214
*972 FILLER_14_221
*973 FILLER_14_228
*974 FILLER_14_235
*975 FILLER_14_242
*976 FILLER_14_249
*977 FILLER_14_25
*978 FILLER_14_256
*979 FILLER_14_263
*980 FILLER_14_270
*981 FILLER_14_277
*982 FILLER_14_284
*983 FILLER_14_291
*984 FILLER_14_298
*985 FILLER_14_305
*986 FILLER_14_312
*987 FILLER_14_319
*988 FILLER_14_32
*989 FILLER_14_326
*990 FILLER_14_333
*991 FILLER_14_340
*992 FILLER_14_347
*993 FILLER_14_354
*994 FILLER_14_361
*995 FILLER_14_368
*996 FILLER_14_375
*997 FILLER_14_382
*998 FILLER_14_389
*999 FILLER_14_39
*1000 FILLER_14_396
*1001 FILLER_14_4
*1002 FILLER_14_403
*1003 FILLER_14_410
*1004 FILLER_14_417
*1005 FILLER_14_424
*1006 FILLER_14_431
*1007 FILLER_14_438
*1008 FILLER_14_445
*1009 FILLER_14_452
*1010 FILLER_14_459
*1011 FILLER_14_46
*1012 FILLER_14_466
*1013 FILLER_14_473
*1014 FILLER_14_480
*1015 FILLER_14_487
*1016 FILLER_14_53
*1017 FILLER_14_60
*1018 FILLER_14_67
*1019 FILLER_14_74
*1020 FILLER_14_81
*1021 FILLER_14_88
*1022 FILLER_14_948
*1023 FILLER_14_95
*1024 FILLER_14_955
*1025 FILLER_14_962
*1026 FILLER_14_969
*1027 FILLER_14_976
*1028 FILLER_14_983
*1029 FILLER_14_990
*1030 FILLER_14_997
*1031 FILLER_15_1004
*1032 FILLER_15_1011
*1033 FILLER_15_1018
*1034 FILLER_15_102
*1035 FILLER_15_1025
*1036 FILLER_15_109
*1037 FILLER_15_11
*1038 FILLER_15_116
*1039 FILLER_15_123
*1040 FILLER_15_130
*1041 FILLER_15_137
*1042 FILLER_15_144
*1043 FILLER_15_151
*1044 FILLER_15_158
*1045 FILLER_15_165
*1046 FILLER_15_172
*1047 FILLER_15_179
*1048 FILLER_15_18
*1049 FILLER_15_186
*1050 FILLER_15_193
*1051 FILLER_15_20
*1052 FILLER_15_200
*1053 FILLER_15_207
*1054 FILLER_15_214
*1055 FILLER_15_221
*1056 FILLER_15_228
*1057 FILLER_15_235
*1058 FILLER_15_242
*1059 FILLER_15_249
*1060 FILLER_15_25
*1061 FILLER_15_256
*1062 FILLER_15_263
*1063 FILLER_15_270
*1064 FILLER_15_277
*1065 FILLER_15_284
*1066 FILLER_15_291
*1067 FILLER_15_298
*1068 FILLER_15_305
*1069 FILLER_15_312
*1070 FILLER_15_319
*1071 FILLER_15_32
*1072 FILLER_15_326
*1073 FILLER_15_333
*1074 FILLER_15_340
*1075 FILLER_15_347
*1076 FILLER_15_354
*1077 FILLER_15_361
*1078 FILLER_15_368
*1079 FILLER_15_375
*1080 FILLER_15_382
*1081 FILLER_15_389
*1082 FILLER_15_39
*1083 FILLER_15_396
*1084 FILLER_15_4
*1085 FILLER_15_403
*1086 FILLER_15_410
*1087 FILLER_15_417
*1088 FILLER_15_424
*1089 FILLER_15_431
*1090 FILLER_15_438
*1091 FILLER_15_445
*1092 FILLER_15_452
*1093 FILLER_15_459
*1094 FILLER_15_46
*1095 FILLER_15_466
*1096 FILLER_15_473
*1097 FILLER_15_480
*1098 FILLER_15_487
*1099 FILLER_15_53
*1100 FILLER_15_60
*1101 FILLER_15_67
*1102 FILLER_15_74
*1103 FILLER_15_81
*1104 FILLER_15_88
*1105 FILLER_15_948
*1106 FILLER_15_95
*1107 FILLER_15_955
*1108 FILLER_15_962
*1109 FILLER_15_969
*1110 FILLER_15_976
*1111 FILLER_15_983
*1112 FILLER_15_990
*1113 FILLER_15_997
*1114 FILLER_16_1004
*1115 FILLER_16_1011
*1116 FILLER_16_1018
*1117 FILLER_16_102
*1118 FILLER_16_1025
*1119 FILLER_16_109
*1120 FILLER_16_11
*1121 FILLER_16_116
*1122 FILLER_16_123
*1123 FILLER_16_130
*1124 FILLER_16_137
*1125 FILLER_16_144
*1126 FILLER_16_151
*1127 FILLER_16_158
*1128 FILLER_16_165
*1129 FILLER_16_172
*1130 FILLER_16_179
*1131 FILLER_16_18
*1132 FILLER_16_186
*1133 FILLER_16_193
*1134 FILLER_16_20
*1135 FILLER_16_200
*1136 FILLER_16_207
*1137 FILLER_16_214
*1138 FILLER_16_221
*1139 FILLER_16_228
*1140 FILLER_16_235
*1141 FILLER_16_242
*1142 FILLER_16_249
*1143 FILLER_16_25
*1144 FILLER_16_256
*1145 FILLER_16_263
*1146 FILLER_16_270
*1147 FILLER_16_277
*1148 FILLER_16_284
*1149 FILLER_16_291
*1150 FILLER_16_298
*1151 FILLER_16_305
*1152 FILLER_16_312
*1153 FILLER_16_319
*1154 FILLER_16_32
*1155 FILLER_16_326
*1156 FILLER_16_333
*1157 FILLER_16_340
*1158 FILLER_16_347
*1159 FILLER_16_354
*1160 FILLER_16_361
*1161 FILLER_16_368
*1162 FILLER_16_375
*1163 FILLER_16_382
*1164 FILLER_16_389
*1165 FILLER_16_39
*1166 FILLER_16_396
*1167 FILLER_16_4
*1168 FILLER_16_403
*1169 FILLER_16_410
*1170 FILLER_16_417
*1171 FILLER_16_424
*1172 FILLER_16_431
*1173 FILLER_16_438
*1174 FILLER_16_445
*1175 FILLER_16_452
*1176 FILLER_16_459
*1177 FILLER_16_46
*1178 FILLER_16_466
*1179 FILLER_16_473
*1180 FILLER_16_480
*1181 FILLER_16_487
*1182 FILLER_16_53
*1183 FILLER_16_60
*1184 FILLER_16_67
*1185 FILLER_16_74
*1186 FILLER_16_81
*1187 FILLER_16_88
*1188 FILLER_16_948
*1189 FILLER_16_95
*1190 FILLER_16_955
*1191 FILLER_16_962
*1192 FILLER_16_969
*1193 FILLER_16_976
*1194 FILLER_16_983
*1195 FILLER_16_990
*1196 FILLER_16_997
*1197 FILLER_17_0
*1198 FILLER_17_1004
*1199 FILLER_17_1011
*1200 FILLER_17_1018
*1201 FILLER_17_1025
*1202 FILLER_17_105
*1203 FILLER_17_112
*1204 FILLER_17_119
*1205 FILLER_17_126
*1206 FILLER_17_133
*1207 FILLER_17_14
*1208 FILLER_17_140
*1209 FILLER_17_147
*1210 FILLER_17_154
*1211 FILLER_17_161
*1212 FILLER_17_168
*1213 FILLER_17_175
*1214 FILLER_17_182
*1215 FILLER_17_189
*1216 FILLER_17_196
*1217 FILLER_17_203
*1218 FILLER_17_21
*1219 FILLER_17_210
*1220 FILLER_17_217
*1221 FILLER_17_224
*1222 FILLER_17_231
*1223 FILLER_17_238
*1224 FILLER_17_245
*1225 FILLER_17_252
*1226 FILLER_17_259
*1227 FILLER_17_266
*1228 FILLER_17_273
*1229 FILLER_17_28
*1230 FILLER_17_280
*1231 FILLER_17_287
*1232 FILLER_17_294
*1233 FILLER_17_301
*1234 FILLER_17_308
*1235 FILLER_17_315
*1236 FILLER_17_322
*1237 FILLER_17_329
*1238 FILLER_17_336
*1239 FILLER_17_343
*1240 FILLER_17_35
*1241 FILLER_17_350
*1242 FILLER_17_357
*1243 FILLER_17_364
*1244 FILLER_17_371
*1245 FILLER_17_378
*1246 FILLER_17_385
*1247 FILLER_17_392
*1248 FILLER_17_399
*1249 FILLER_17_406
*1250 FILLER_17_413
*1251 FILLER_17_42
*1252 FILLER_17_420
*1253 FILLER_17_427
*1254 FILLER_17_434
*1255 FILLER_17_441
*1256 FILLER_17_448
*1257 FILLER_17_455
*1258 FILLER_17_462
*1259 FILLER_17_469
*1260 FILLER_17_476
*1261 FILLER_17_483
*1262 FILLER_17_49
*1263 FILLER_17_490
*1264 FILLER_17_56
*1265 FILLER_17_63
*1266 FILLER_17_7
*1267 FILLER_17_70
*1268 FILLER_17_77
*1269 FILLER_17_84
*1270 FILLER_17_91
*1271 FILLER_17_948
*1272 FILLER_17_955
*1273 FILLER_17_962
*1274 FILLER_17_969
*1275 FILLER_17_976
*1276 FILLER_17_98
*1277 FILLER_17_983
*1278 FILLER_17_990
*1279 FILLER_17_997
*1280 FILLER_18_1004
*1281 FILLER_18_1011
*1282 FILLER_18_1018
*1283 FILLER_18_102
*1284 FILLER_18_1025
*1285 FILLER_18_109
*1286 FILLER_18_11
*1287 FILLER_18_116
*1288 FILLER_18_123
*1289 FILLER_18_130
*1290 FILLER_18_137
*1291 FILLER_18_144
*1292 FILLER_18_15
*1293 FILLER_18_151
*1294 FILLER_18_158
*1295 FILLER_18_165
*1296 FILLER_18_172
*1297 FILLER_18_179
*1298 FILLER_18_186
*1299 FILLER_18_193
*1300 FILLER_18_200
*1301 FILLER_18_207
*1302 FILLER_18_214
*1303 FILLER_18_221
*1304 FILLER_18_228
*1305 FILLER_18_235
*1306 FILLER_18_242
*1307 FILLER_18_249
*1308 FILLER_18_25
*1309 FILLER_18_256
*1310 FILLER_18_263
*1311 FILLER_18_270
*1312 FILLER_18_277
*1313 FILLER_18_284
*1314 FILLER_18_291
*1315 FILLER_18_298
*1316 FILLER_18_305
*1317 FILLER_18_312
*1318 FILLER_18_319
*1319 FILLER_18_32
*1320 FILLER_18_326
*1321 FILLER_18_333
*1322 FILLER_18_340
*1323 FILLER_18_347
*1324 FILLER_18_354
*1325 FILLER_18_361
*1326 FILLER_18_368
*1327 FILLER_18_375
*1328 FILLER_18_382
*1329 FILLER_18_389
*1330 FILLER_18_39
*1331 FILLER_18_396
*1332 FILLER_18_4
*1333 FILLER_18_403
*1334 FILLER_18_410
*1335 FILLER_18_417
*1336 FILLER_18_424
*1337 FILLER_18_431
*1338 FILLER_18_438
*1339 FILLER_18_445
*1340 FILLER_18_452
*1341 FILLER_18_459
*1342 FILLER_18_46
*1343 FILLER_18_466
*1344 FILLER_18_473
*1345 FILLER_18_480
*1346 FILLER_18_487
*1347 FILLER_18_53
*1348 FILLER_18_60
*1349 FILLER_18_67
*1350 FILLER_18_74
*1351 FILLER_18_81
*1352 FILLER_18_88
*1353 FILLER_18_948
*1354 FILLER_18_95
*1355 FILLER_18_955
*1356 FILLER_18_962
*1357 FILLER_18_969
*1358 FILLER_18_976
*1359 FILLER_18_983
*1360 FILLER_18_990
*1361 FILLER_18_997
*1362 FILLER_19_100
*1363 FILLER_19_1004
*1364 FILLER_19_1011
*1365 FILLER_19_1018
*1366 FILLER_19_1025
*1367 FILLER_19_107
*1368 FILLER_19_11
*1369 FILLER_19_114
*1370 FILLER_19_121
*1371 FILLER_19_128
*1372 FILLER_19_135
*1373 FILLER_19_142
*1374 FILLER_19_149
*1375 FILLER_19_156
*1376 FILLER_19_163
*1377 FILLER_19_170
*1378 FILLER_19_177
*1379 FILLER_19_18
*1380 FILLER_19_184
*1381 FILLER_19_191
*1382 FILLER_19_198
*1383 FILLER_19_205
*1384 FILLER_19_212
*1385 FILLER_19_219
*1386 FILLER_19_226
*1387 FILLER_19_233
*1388 FILLER_19_240
*1389 FILLER_19_247
*1390 FILLER_19_25
*1391 FILLER_19_254
*1392 FILLER_19_261
*1393 FILLER_19_268
*1394 FILLER_19_27
*1395 FILLER_19_275
*1396 FILLER_19_282
*1397 FILLER_19_289
*1398 FILLER_19_296
*1399 FILLER_19_303
*1400 FILLER_19_310
*1401 FILLER_19_317
*1402 FILLER_19_324
*1403 FILLER_19_331
*1404 FILLER_19_338
*1405 FILLER_19_345
*1406 FILLER_19_352
*1407 FILLER_19_359
*1408 FILLER_19_366
*1409 FILLER_19_37
*1410 FILLER_19_373
*1411 FILLER_19_380
*1412 FILLER_19_387
*1413 FILLER_19_394
*1414 FILLER_19_4
*1415 FILLER_19_401
*1416 FILLER_19_408
*1417 FILLER_19_415
*1418 FILLER_19_422
*1419 FILLER_19_429
*1420 FILLER_19_436
*1421 FILLER_19_44
*1422 FILLER_19_443
*1423 FILLER_19_450
*1424 FILLER_19_457
*1425 FILLER_19_464
*1426 FILLER_19_471
*1427 FILLER_19_478
*1428 FILLER_19_485
*1429 FILLER_19_492
*1430 FILLER_19_51
*1431 FILLER_19_58
*1432 FILLER_19_65
*1433 FILLER_19_72
*1434 FILLER_19_79
*1435 FILLER_19_86
*1436 FILLER_19_93
*1437 FILLER_19_948
*1438 FILLER_19_955
*1439 FILLER_19_962
*1440 FILLER_19_969
*1441 FILLER_19_976
*1442 FILLER_19_983
*1443 FILLER_19_990
*1444 FILLER_19_997
*1445 FILLER_1_0
*1446 FILLER_1_1001
*1447 FILLER_1_1008
*1448 FILLER_1_1015
*1449 FILLER_1_1022
*1450 FILLER_1_105
*1451 FILLER_1_112
*1452 FILLER_1_119
*1453 FILLER_1_126
*1454 FILLER_1_133
*1455 FILLER_1_14
*1456 FILLER_1_140
*1457 FILLER_1_147
*1458 FILLER_1_154
*1459 FILLER_1_161
*1460 FILLER_1_168
*1461 FILLER_1_175
*1462 FILLER_1_182
*1463 FILLER_1_189
*1464 FILLER_1_196
*1465 FILLER_1_203
*1466 FILLER_1_21
*1467 FILLER_1_210
*1468 FILLER_1_217
*1469 FILLER_1_224
*1470 FILLER_1_231
*1471 FILLER_1_238
*1472 FILLER_1_245
*1473 FILLER_1_252
*1474 FILLER_1_259
*1475 FILLER_1_266
*1476 FILLER_1_273
*1477 FILLER_1_28
*1478 FILLER_1_280
*1479 FILLER_1_287
*1480 FILLER_1_294
*1481 FILLER_1_301
*1482 FILLER_1_308
*1483 FILLER_1_315
*1484 FILLER_1_322
*1485 FILLER_1_329
*1486 FILLER_1_336
*1487 FILLER_1_343
*1488 FILLER_1_35
*1489 FILLER_1_350
*1490 FILLER_1_357
*1491 FILLER_1_364
*1492 FILLER_1_371
*1493 FILLER_1_378
*1494 FILLER_1_385
*1495 FILLER_1_392
*1496 FILLER_1_399
*1497 FILLER_1_406
*1498 FILLER_1_413
*1499 FILLER_1_42
*1500 FILLER_1_420
*1501 FILLER_1_427
*1502 FILLER_1_434
*1503 FILLER_1_441
*1504 FILLER_1_448
*1505 FILLER_1_455
*1506 FILLER_1_462
*1507 FILLER_1_469
*1508 FILLER_1_476
*1509 FILLER_1_483
*1510 FILLER_1_49
*1511 FILLER_1_490
*1512 FILLER_1_497
*1513 FILLER_1_504
*1514 FILLER_1_511
*1515 FILLER_1_518
*1516 FILLER_1_525
*1517 FILLER_1_532
*1518 FILLER_1_539
*1519 FILLER_1_546
*1520 FILLER_1_553
*1521 FILLER_1_56
*1522 FILLER_1_560
*1523 FILLER_1_567
*1524 FILLER_1_574
*1525 FILLER_1_581
*1526 FILLER_1_588
*1527 FILLER_1_595
*1528 FILLER_1_602
*1529 FILLER_1_609
*1530 FILLER_1_616
*1531 FILLER_1_623
*1532 FILLER_1_63
*1533 FILLER_1_630
*1534 FILLER_1_637
*1535 FILLER_1_644
*1536 FILLER_1_651
*1537 FILLER_1_658
*1538 FILLER_1_665
*1539 FILLER_1_672
*1540 FILLER_1_679
*1541 FILLER_1_686
*1542 FILLER_1_693
*1543 FILLER_1_7
*1544 FILLER_1_70
*1545 FILLER_1_700
*1546 FILLER_1_707
*1547 FILLER_1_714
*1548 FILLER_1_721
*1549 FILLER_1_728
*1550 FILLER_1_735
*1551 FILLER_1_742
*1552 FILLER_1_749
*1553 FILLER_1_756
*1554 FILLER_1_763
*1555 FILLER_1_77
*1556 FILLER_1_770
*1557 FILLER_1_777
*1558 FILLER_1_784
*1559 FILLER_1_791
*1560 FILLER_1_798
*1561 FILLER_1_805
*1562 FILLER_1_812
*1563 FILLER_1_819
*1564 FILLER_1_826
*1565 FILLER_1_833
*1566 FILLER_1_84
*1567 FILLER_1_840
*1568 FILLER_1_847
*1569 FILLER_1_854
*1570 FILLER_1_861
*1571 FILLER_1_868
*1572 FILLER_1_875
*1573 FILLER_1_882
*1574 FILLER_1_889
*1575 FILLER_1_896
*1576 FILLER_1_903
*1577 FILLER_1_91
*1578 FILLER_1_910
*1579 FILLER_1_917
*1580 FILLER_1_924
*1581 FILLER_1_931
*1582 FILLER_1_938
*1583 FILLER_1_945
*1584 FILLER_1_952
*1585 FILLER_1_959
*1586 FILLER_1_966
*1587 FILLER_1_973
*1588 FILLER_1_98
*1589 FILLER_1_980
*1590 FILLER_1_987
*1591 FILLER_1_994
*1592 FILLER_20_1004
*1593 FILLER_20_1011
*1594 FILLER_20_1018
*1595 FILLER_20_1025
*1596 FILLER_20_105
*1597 FILLER_20_112
*1598 FILLER_20_119
*1599 FILLER_20_126
*1600 FILLER_20_133
*1601 FILLER_20_140
*1602 FILLER_20_147
*1603 FILLER_20_154
*1604 FILLER_20_161
*1605 FILLER_20_168
*1606 FILLER_20_175
*1607 FILLER_20_182
*1608 FILLER_20_189
*1609 FILLER_20_196
*1610 FILLER_20_203
*1611 FILLER_20_210
*1612 FILLER_20_217
*1613 FILLER_20_224
*1614 FILLER_20_231
*1615 FILLER_20_238
*1616 FILLER_20_245
*1617 FILLER_20_252
*1618 FILLER_20_259
*1619 FILLER_20_266
*1620 FILLER_20_273
*1621 FILLER_20_280
*1622 FILLER_20_287
*1623 FILLER_20_294
*1624 FILLER_20_301
*1625 FILLER_20_308
*1626 FILLER_20_315
*1627 FILLER_20_322
*1628 FILLER_20_329
*1629 FILLER_20_336
*1630 FILLER_20_343
*1631 FILLER_20_350
*1632 FILLER_20_357
*1633 FILLER_20_364
*1634 FILLER_20_371
*1635 FILLER_20_378
*1636 FILLER_20_385
*1637 FILLER_20_392
*1638 FILLER_20_399
*1639 FILLER_20_4
*1640 FILLER_20_406
*1641 FILLER_20_413
*1642 FILLER_20_420
*1643 FILLER_20_427
*1644 FILLER_20_434
*1645 FILLER_20_441
*1646 FILLER_20_448
*1647 FILLER_20_455
*1648 FILLER_20_462
*1649 FILLER_20_469
*1650 FILLER_20_476