*SPEF "ieee 1481-1999"
*DESIGN "heichips25_ethernet"
*DATE "09:32:55 Monday March 23, 2026"
*VENDOR "The OpenROAD Project"
*PROGRAM "OpenROAD"
*VERSION "dfc4f595dfb2e1c346492ff1f0274abb28725acf"
*DESIGN_FLOW "NAME_SCOPE LOCAL" "PIN_CAP NONE"
*DIVIDER /
*DELIMITER :
*BUS_DELIMITER []
*T_UNIT 1 NS
*C_UNIT 1 PF
*R_UNIT 1 OHM
*L_UNIT 1 HENRY

*NAME_MAP
*3 clk
*4 ena
*5 ethernet_dn
*6 ethernet_dp
*7 rst_n
*8 ui_in[0]
*9 ui_in[1]
*10 ui_in[2]
*11 ui_in[3]
*12 ui_in[4]
*13 ui_in[5]
*14 ui_in[6]
*15 ui_in[7]
*16 uio_in[0]
*17 uio_in[1]
*18 uio_in[2]
*19 uio_in[3]
*20 uio_in[4]
*21 uio_in[5]
*22 uio_in[6]
*23 uio_in[7]
*24 net
*25 uio_oe[1]
*26 net46
*27 net47
*28 net48
*29 net49
*30 net50
*31 net51
*32 net52
*33 uio_out[1]
*34 net53
*35 net54
*36 net55
*37 net56
*38 net57
*39 net58
*40 net59
*41 uo_out[1]
*42 uo_out[2]
*43 uo_out[3]
*44 net60
*45 net61
*46 net62
*47 net63
*48 _000_
*49 _001_
*50 _002_
*51 _003_
*52 _004_
*53 _005_
*54 _006_
*55 _007_
*56 _008_
*57 _009_
*58 _010_
*59 _011_
*60 _012_
*61 _013_
*62 _014_
*63 _015_
*64 _016_
*65 _017_
*66 _018_
*67 _019_
*68 _020_
*69 _021_
*70 _022_
*71 _023_
*72 _024_
*73 _025_
*74 _026_
*75 _027_
*76 _028_
*77 _029_
*78 _030_
*79 _031_
*80 _032_
*81 _033_
*82 _034_
*83 _035_
*84 _036_
*85 _037_
*86 _038_
*87 _039_
*88 _040_
*89 _041_
*90 _042_
*91 _043_
*92 _044_
*93 _045_
*94 _046_
*95 _047_
*96 _048_
*97 _049_
*98 _050_
*99 _051_
*100 _052_
*101 _053_
*102 _054_
*103 _055_
*104 _056_
*105 _057_
*106 _058_
*107 _059_
*108 _060_
*109 _061_
*110 _062_
*111 _063_
*112 _064_
*113 _065_
*114 _066_
*115 _067_
*116 _068_
*117 _069_
*118 _070_
*119 _071_
*120 _072_
*121 _073_
*122 _074_
*123 _075_
*124 _076_
*125 _077_
*126 _078_
*127 _079_
*128 _080_
*129 _081_
*130 _082_
*131 _083_
*132 _084_
*133 _085_
*134 _086_
*135 _087_
*136 _088_
*137 _089_
*138 _090_
*139 _091_
*140 _092_
*141 _093_
*142 _094_
*143 _095_
*144 _096_
*145 _097_
*146 _098_
*147 _099_
*148 _100_
*149 _101_
*150 _102_
*151 _103_
*152 _104_
*153 _105_
*154 _106_
*155 _107_
*156 _108_
*157 _109_
*158 _110_
*159 _111_
*160 _112_
*161 _113_
*162 _114_
*163 _115_
*164 _116_
*165 _117_
*166 _118_
*167 _119_
*168 _120_
*169 _121_
*170 _122_
*171 _123_
*172 _124_
*173 _125_
*174 _126_
*175 _127_
*176 _128_
*177 _129_
*178 _130_
*179 _131_
*180 _132_
*181 _133_
*182 _134_
*183 _135_
*184 _136_
*185 _137_
*186 _138_
*187 _139_
*188 _140_
*189 _141_
*190 _142_
*191 _143_
*192 _144_
*193 _145_
*194 _146_
*195 _147_
*196 _148_
*197 _149_
*198 _150_
*199 _151_
*200 _152_
*201 _153_
*202 _154_
*203 _155_
*204 _156_
*205 _157_
*206 _158_
*207 _159_
*208 _160_
*209 _161_
*210 _162_
*211 _163_
*212 _164_
*213 _165_
*214 _166_
*215 _167_
*216 _168_
*217 _169_
*218 _170_
*219 _171_
*220 _172_
*221 _173_
*222 _174_
*223 _175_
*224 _176_
*225 _177_
*226 _178_
*227 _179_
*228 _180_
*229 _181_
*230 _182_
*231 _183_
*232 _184_
*233 _185_
*234 _186_
*235 _187_
*236 _188_
*237 _189_
*238 _190_
*239 _191_
*240 _192_
*241 _193_
*242 _194_
*243 _195_
*244 _196_
*245 _197_
*246 _198_
*247 _199_
*248 _200_
*249 _201_
*250 _202_
*251 _203_
*252 _204_
*253 _205_
*254 _206_
*255 _207_
*256 _208_
*257 _209_
*258 _210_
*259 _211_
*260 _212_
*261 _213_
*262 _214_
*263 _215_
*264 _216_
*265 _217_
*266 _218_
*267 _219_
*268 _220_
*269 _221_
*270 _222_
*271 _223_
*272 _224_
*273 _225_
*274 _226_
*275 _227_
*276 _228_
*277 _229_
*278 _230_
*279 _231_
*280 _232_
*281 _233_
*282 _234_
*283 _235_
*284 _236_
*285 _237_
*286 _238_
*287 _239_
*288 _240_
*289 _241_
*290 _242_
*291 _243_
*292 _244_
*293 _245_
*294 _246_
*295 _247_
*296 _248_
*297 _249_
*298 _250_
*299 _251_
*300 _252_
*301 _253_
*302 _254_
*303 _255_
*304 _256_
*305 _257_
*306 _258_
*307 _259_
*308 _260_
*309 _261_
*310 _262_
*311 _263_
*312 _264_
*313 _265_
*314 _266_
*315 _267_
*316 _268_
*317 _269_
*318 _270_
*319 _271_
*320 _272_
*321 _273_
*322 _274_
*323 _275_
*324 _276_
*325 _277_
*326 _278_
*327 _279_
*328 _280_
*329 _281_
*330 _282_
*331 _283_
*332 _284_
*333 _285_
*334 _286_
*335 _287_
*336 _288_
*337 _289_
*338 _290_
*339 _291_
*340 _292_
*341 _293_
*342 _294_
*343 _295_
*344 _296_
*345 _297_
*346 _298_
*347 _299_
*348 _300_
*349 _301_
*350 _302_
*351 _303_
*352 _304_
*353 _305_
*354 _306_
*355 _307_
*356 _308_
*357 _309_
*358 _310_
*359 _311_
*360 _312_
*361 _313_
*362 clknet_0_clk
*363 clknet_4_0_0_clk
*364 clknet_4_10_0_clk
*365 clknet_4_11_0_clk
*366 clknet_4_12_0_clk
*367 clknet_4_13_0_clk
*368 clknet_4_14_0_clk
*369 clknet_4_15_0_clk
*370 clknet_4_1_0_clk
*371 clknet_4_2_0_clk
*372 clknet_4_3_0_clk
*373 clknet_4_4_0_clk
*374 clknet_4_5_0_clk
*375 clknet_4_6_0_clk
*376 clknet_4_7_0_clk
*377 clknet_4_8_0_clk
*378 clknet_4_9_0_clk
*379 in_n
*380 in_p
*381 net1
*382 net10
*383 net100
*384 net101
*385 net102
*386 net103
*387 net104
*388 net105
*389 net106
*390 net107
*391 net108
*392 net109
*393 net11
*394 net110
*395 net111
*396 net112
*397 net113
*398 net114
*399 net115
*400 net116
*401 net117
*402 net118
*403 net119
*404 net12
*405 net120
*406 net121
*407 net122
*408 net123
*409 net124
*410 net125
*411 net126
*412 net127
*413 net128
*414 net129
*415 net13
*416 net130
*417 net131
*418 net132
*419 net133
*420 net134
*421 net135
*422 net136
*423 net137
*424 net138
*425 net139
*426 net14
*427 net140
*428 net141
*429 net142
*430 net143
*431 net144
*432 net145
*433 net146
*434 net147
*435 net148
*436 net149
*437 net15
*438 net150
*439 net151
*440 net152
*441 net153
*442 net154
*443 net155
*444 net156
*445 net157
*446 net158
*447 net159
*448 net16
*449 net160
*450 net161
*451 net162
*452 net163
*453 net164
*454 net165
*455 net166
*456 net167
*457 net168
*458 net169
*459 net17
*460 net170
*461 net171
*462 net172
*463 net173
*464 net174
*465 net175
*466 net176
*467 net177
*468 net178
*469 net179
*470 net18
*471 net180
*472 net181
*473 net182
*474 net183
*475 net184
*476 net185
*477 net186
*478 net187
*479 net188
*480 net189
*481 net19
*482 net190
*483 net191
*484 net192
*485 net193
*486 net194
*487 net195
*488 net196
*489 net197
*490 net198
*491 net199
*492 net2
*493 net20
*494 net200
*495 net201
*496 net202
*497 net203
*498 net204
*499 net205
*500 net206
*501 net207
*502 net208
*503 net209
*504 net21
*505 net210
*506 net211
*507 net212
*508 net213
*509 net214
*510 net215
*511 net216
*512 net217
*513 net218
*514 net219
*515 net22
*516 net220
*517 net221
*518 net23
*519 net24
*520 net25
*521 net26
*522 net27
*523 net28
*524 net29
*525 net3
*526 net30
*527 net31
*528 net32
*529 net33
*530 net34
*531 net35
*532 net36
*533 net37
*534 net38
*535 net39
*536 net4
*537 net40
*538 net41
*539 net42
*540 net43
*541 net44
*542 net45
*543 net5
*544 net6
*545 net64
*546 net65
*547 net66
*548 net67
*549 net68
*550 net69
*551 net7
*552 net70
*553 net71
*554 net72
*555 net73
*556 net74
*557 net75
*558 net76
*559 net77
*560 net78
*561 net79
*562 net8
*563 net80
*564 net81
*565 net82
*566 net83
*567 net84
*568 net85
*569 net86
*570 net87
*571 net88
*572 net89
*573 net9
*574 net90
*575 net91
*576 net92
*577 net93
*578 net94
*579 net95
*580 net96
*581 net97
*582 net98
*583 net99
*584 phy_0\.cycle_count\[1\]
*585 phy_0\.cycle_count\[2\]
*586 phy_0\.enc_buf\[0\]
*587 phy_0\.enc_buf\[1\]
*588 phy_0\.enc_buf\[2\]
*589 phy_0\.enc_buf\[3\]
*590 phy_0\.enc_count\[0\]
*591 phy_0\.enc_count\[1\]
*592 phy_0\.enc_count\[2\]
*593 phy_0\.mdio_inst\.bit_cnt\[0\]
*594 phy_0\.mdio_inst\.bit_cnt\[1\]
*595 phy_0\.mdio_inst\.bit_cnt\[2\]
*596 phy_0\.mdio_inst\.bit_cnt\[3\]
*597 phy_0\.mdio_inst\.bit_cnt\[4\]
*598 phy_0\.mdio_inst\.bit_cnt\[5\]
*599 phy_0\.mdio_inst\.data_buf\[0\]
*600 phy_0\.mdio_inst\.data_buf\[10\]
*601 phy_0\.mdio_inst\.data_buf\[11\]
*602 phy_0\.mdio_inst\.data_buf\[12\]
*603 phy_0\.mdio_inst\.data_buf\[13\]
*604 phy_0\.mdio_inst\.data_buf\[14\]
*605 phy_0\.mdio_inst\.data_buf\[15\]
*606 phy_0\.mdio_inst\.data_buf\[1\]
*607 phy_0\.mdio_inst\.data_buf\[2\]
*608 phy_0\.mdio_inst\.data_buf\[3\]
*609 phy_0\.mdio_inst\.data_buf\[4\]
*610 phy_0\.mdio_inst\.data_buf\[5\]
*611 phy_0\.mdio_inst\.data_buf\[6\]
*612 phy_0\.mdio_inst\.data_buf\[7\]
*613 phy_0\.mdio_inst\.data_buf\[8\]
*614 phy_0\.mdio_inst\.data_buf\[9\]
*615 phy_0\.mdio_inst\.header_buf\[0\]
*616 phy_0\.mdio_inst\.header_buf\[10\]
*617 phy_0\.mdio_inst\.header_buf\[11\]
*618 phy_0\.mdio_inst\.header_buf\[12\]
*619 phy_0\.mdio_inst\.header_buf\[13\]
*620 phy_0\.mdio_inst\.header_buf\[1\]
*621 phy_0\.mdio_inst\.header_buf\[2\]
*622 phy_0\.mdio_inst\.header_buf\[3\]
*623 phy_0\.mdio_inst\.header_buf\[4\]
*624 phy_0\.mdio_inst\.header_buf\[5\]
*625 phy_0\.mdio_inst\.header_buf\[6\]
*626 phy_0\.mdio_inst\.header_buf\[7\]
*627 phy_0\.mdio_inst\.header_buf\[8\]
*628 phy_0\.mdio_inst\.header_buf\[9\]
*629 phy_0\.mdio_inst\.mdc_d
*630 phy_0\.mdio_inst\.mdc_dd
*631 phy_0\.mdio_inst\.mdio_o
*632 phy_0\.mdio_inst\.mdio_oe
*633 phy_0\.mdio_inst\.ones_cnt\[0\]
*634 phy_0\.mdio_inst\.ones_cnt\[1\]
*635 phy_0\.mdio_inst\.ones_cnt\[2\]
*636 phy_0\.mdio_inst\.ones_cnt\[3\]
*637 phy_0\.mdio_inst\.ones_cnt\[4\]
*638 phy_0\.mdio_inst\.ones_cnt\[5\]
*639 phy_0\.mdio_inst\.reg_addr\[0\]
*640 phy_0\.mdio_inst\.reg_addr\[1\]
*641 phy_0\.mdio_inst\.reg_addr\[2\]
*642 phy_0\.mdio_inst\.reg_addr\[3\]
*643 phy_0\.mdio_inst\.reg_addr\[4\]
*644 phy_0\.mdio_inst\.reg_wdata\[14\]
*645 phy_0\.mdio_inst\.reg_wdata\[15\]
*646 phy_0\.mdio_inst\.reg_write_en
*647 phy_0\.mdio_inst\.state\[1\]
*648 phy_0\.ref_clk_d
*649 phy_0\.ref_clk_dd
*650 phy_0\.reg_loopback
*651 phy_0\.rx_dv
*652 phy_0\.tx_en_d
*653 phy_0\.tx_en_dd
*654 phy_0\.tx_packet_count\[0\]
*655 phy_0\.tx_packet_count\[10\]
*656 phy_0\.tx_packet_count\[11\]
*657 phy_0\.tx_packet_count\[12\]
*658 phy_0\.tx_packet_count\[13\]
*659 phy_0\.tx_packet_count\[14\]
*660 phy_0\.tx_packet_count\[15\]
*661 phy_0\.tx_packet_count\[1\]
*662 phy_0\.tx_packet_count\[2\]
*663 phy_0\.tx_packet_count\[3\]
*664 phy_0\.tx_packet_count\[4\]
*665 phy_0\.tx_packet_count\[5\]
*666 phy_0\.tx_packet_count\[6\]
*667 phy_0\.tx_packet_count\[7\]
*668 phy_0\.tx_packet_count\[8\]
*669 phy_0\.tx_packet_count\[9\]
*670 phy_0\.txd_d\[0\]
*671 phy_0\.txd_d\[1\]
*672 phy_0\.txd_dd\[0\]
*673 phy_0\.txd_dd\[1\]
*674 FILLER_0_0
*675 FILLER_0_105
*676 FILLER_0_112
*677 FILLER_0_119
*678 FILLER_0_126
*679 FILLER_0_133
*680 FILLER_0_14
*681 FILLER_0_140
*682 FILLER_0_147
*683 FILLER_0_154
*684 FILLER_0_161
*685 FILLER_0_168
*686 FILLER_0_175
*687 FILLER_0_182
*688 FILLER_0_189
*689 FILLER_0_196
*690 FILLER_0_203
*691 FILLER_0_21
*692 FILLER_0_210
*693 FILLER_0_217
*694 FILLER_0_224
*695 FILLER_0_231
*696 FILLER_0_238
*697 FILLER_0_245
*698 FILLER_0_252
*699 FILLER_0_259
*700 FILLER_0_266
*701 FILLER_0_273
*702 FILLER_0_28
*703 FILLER_0_280
*704 FILLER_0_287
*705 FILLER_0_294
*706 FILLER_0_301
*707 FILLER_0_308
*708 FILLER_0_315
*709 FILLER_0_322
*710 FILLER_0_329
*711 FILLER_0_336
*712 FILLER_0_343
*713 FILLER_0_35
*714 FILLER_0_350
*715 FILLER_0_352
*716 FILLER_0_42
*717 FILLER_0_49
*718 FILLER_0_56
*719 FILLER_0_63
*720 FILLER_0_7
*721 FILLER_0_70
*722 FILLER_0_77
*723 FILLER_0_84
*724 FILLER_0_91
*725 FILLER_0_98
*726 FILLER_10_102
*727 FILLER_10_109
*728 FILLER_10_11
*729 FILLER_10_116
*730 FILLER_10_123
*731 FILLER_10_130
*732 FILLER_10_137
*733 FILLER_10_144
*734 FILLER_10_151
*735 FILLER_10_158
*736 FILLER_10_165
*737 FILLER_10_172
*738 FILLER_10_179
*739 FILLER_10_18
*740 FILLER_10_186
*741 FILLER_10_193
*742 FILLER_10_200
*743 FILLER_10_207
*744 FILLER_10_214
*745 FILLER_10_221
*746 FILLER_10_228
*747 FILLER_10_235
*748 FILLER_10_242
*749 FILLER_10_249
*750 FILLER_10_25
*751 FILLER_10_256
*752 FILLER_10_263
*753 FILLER_10_270
*754 FILLER_10_277
*755 FILLER_10_284
*756 FILLER_10_291
*757 FILLER_10_298
*758 FILLER_10_305
*759 FILLER_10_312
*760 FILLER_10_319
*761 FILLER_10_32
*762 FILLER_10_326
*763 FILLER_10_333
*764 FILLER_10_340
*765 FILLER_10_347
*766 FILLER_10_351
*767 FILLER_10_39
*768 FILLER_10_4
*769 FILLER_10_46
*770 FILLER_10_53
*771 FILLER_10_60
*772 FILLER_10_67
*773 FILLER_10_74
*774 FILLER_10_81
*775 FILLER_10_88
*776 FILLER_10_95
*777 FILLER_11_102
*778 FILLER_11_109
*779 FILLER_11_11
*780 FILLER_11_116
*781 FILLER_11_123
*782 FILLER_11_130
*783 FILLER_11_137
*784 FILLER_11_144
*785 FILLER_11_151
*786 FILLER_11_158
*787 FILLER_11_165
*788 FILLER_11_172
*789 FILLER_11_179
*790 FILLER_11_18
*791 FILLER_11_186
*792 FILLER_11_193
*793 FILLER_11_200
*794 FILLER_11_207
*795 FILLER_11_214
*796 FILLER_11_221
*797 FILLER_11_228
*798 FILLER_11_235
*799 FILLER_11_242
*800 FILLER_11_249
*801 FILLER_11_25
*802 FILLER_11_256
*803 FILLER_11_263
*804 FILLER_11_270
*805 FILLER_11_277
*806 FILLER_11_284
*807 FILLER_11_291
*808 FILLER_11_298
*809 FILLER_11_305
*810 FILLER_11_312
*811 FILLER_11_319
*812 FILLER_11_32
*813 FILLER_11_326
*814 FILLER_11_333
*815 FILLER_11_340
*816 FILLER_11_347
*817 FILLER_11_351
*818 FILLER_11_39
*819 FILLER_11_4
*820 FILLER_11_46
*821 FILLER_11_53
*822 FILLER_11_60
*823 FILLER_11_67
*824 FILLER_11_74
*825 FILLER_11_81
*826 FILLER_11_88
*827 FILLER_11_95
*828 FILLER_12_102
*829 FILLER_12_109
*830 FILLER_12_11
*831 FILLER_12_116
*832 FILLER_12_123
*833 FILLER_12_130
*834 FILLER_12_137
*835 FILLER_12_144
*836 FILLER_12_151
*837 FILLER_12_158
*838 FILLER_12_165
*839 FILLER_12_172
*840 FILLER_12_179
*841 FILLER_12_18
*842 FILLER_12_186
*843 FILLER_12_193
*844 FILLER_12_200
*845 FILLER_12_207
*846 FILLER_12_214
*847 FILLER_12_221
*848 FILLER_12_228
*849 FILLER_12_235
*850 FILLER_12_242
*851 FILLER_12_249
*852 FILLER_12_25
*853 FILLER_12_256
*854 FILLER_12_263
*855 FILLER_12_270
*856 FILLER_12_277
*857 FILLER_12_284
*858 FILLER_12_291
*859 FILLER_12_298
*860 FILLER_12_305
*861 FILLER_12_312
*862 FILLER_12_319
*863 FILLER_12_32
*864 FILLER_12_326
*865 FILLER_12_333
*866 FILLER_12_340
*867 FILLER_12_347
*868 FILLER_12_351
*869 FILLER_12_39
*870 FILLER_12_4
*871 FILLER_12_46
*872 FILLER_12_53
*873 FILLER_12_60
*874 FILLER_12_67
*875 FILLER_12_74
*876 FILLER_12_81
*877 FILLER_12_88
*878 FILLER_12_95
*879 FILLER_13_102
*880 FILLER_13_109
*881 FILLER_13_11
*882 FILLER_13_116
*883 FILLER_13_123
*884 FILLER_13_130
*885 FILLER_13_137
*886 FILLER_13_144
*887 FILLER_13_151
*888 FILLER_13_158
*889 FILLER_13_165
*890 FILLER_13_172
*891 FILLER_13_179
*892 FILLER_13_18
*893 FILLER_13_186
*894 FILLER_13_193
*895 FILLER_13_200
*896 FILLER_13_207
*897 FILLER_13_214
*898 FILLER_13_221
*899 FILLER_13_228
*900 FILLER_13_235
*901 FILLER_13_242
*902 FILLER_13_249
*903 FILLER_13_25
*904 FILLER_13_256
*905 FILLER_13_263
*906 FILLER_13_270
*907 FILLER_13_277
*908 FILLER_13_284
*909 FILLER_13_291
*910 FILLER_13_298
*911 FILLER_13_305
*912 FILLER_13_312
*913 FILLER_13_319
*914 FILLER_13_32
*915 FILLER_13_326
*916 FILLER_13_333
*917 FILLER_13_340
*918 FILLER_13_347
*919 FILLER_13_351
*920 FILLER_13_39
*921 FILLER_13_4
*922 FILLER_13_46
*923 FILLER_13_53
*924 FILLER_13_60
*925 FILLER_13_67
*926 FILLER_13_74
*927 FILLER_13_81
*928 FILLER_13_88
*929 FILLER_13_95
*930 FILLER_14_102
*931 FILLER_14_109
*932 FILLER_14_11
*933 FILLER_14_116
*934 FILLER_14_123
*935 FILLER_14_130
*936 FILLER_14_137
*937 FILLER_14_144
*938 FILLER_14_151
*939 FILLER_14_158
*940 FILLER_14_165
*941 FILLER_14_172
*942 FILLER_14_179
*943 FILLER_14_18
*944 FILLER_14_186
*945 FILLER_14_193
*946 FILLER_14_200
*947 FILLER_14_207
*948 FILLER_14_214
*949 FILLER_14_221
*950 FILLER_14_228
*951 FILLER_14_235
*952 FILLER_14_242
*953 FILLER_14_249
*954 FILLER_14_25
*955 FILLER_14_256
*956 FILLER_14_263
*957 FILLER_14_270
*958 FILLER_14_277
*959 FILLER_14_284
*960 FILLER_14_291
*961 FILLER_14_298
*962 FILLER_14_305
*963 FILLER_14_312
*964 FILLER_14_319
*965 FILLER_14_32
*966 FILLER_14_326
*967 FILLER_14_333
*968 FILLER_14_340
*969 FILLER_14_347
*970 FILLER_14_349
*971 FILLER_14_39
*972 FILLER_14_4
*973 FILLER_14_46
*974 FILLER_14_53
*975 FILLER_14_60
*976 FILLER_14_67
*977 FILLER_14_74
*978 FILLER_14_81
*979 FILLER_14_88
*980 FILLER_14_95
*981 FILLER_15_102
*982 FILLER_15_109
*983 FILLER_15_11
*984 FILLER_15_116
*985 FILLER_15_123
*986 FILLER_15_130
*987 FILLER_15_137
*988 FILLER_15_144
*989 FILLER_15_151
*990 FILLER_15_158
*991 FILLER_15_165
*992 FILLER_15_172
*993 FILLER_15_179
*994 FILLER_15_18
*995 FILLER_15_186
*996 FILLER_15_193
*997 FILLER_15_200
*998 FILLER_15_207
*999 FILLER_15_214
*1000 FILLER_15_221
*1001 FILLER_15_228
*1002 FILLER_15_235
*1003 FILLER_15_242
*1004 FILLER_15_249
*1005 FILLER_15_25
*1006 FILLER_15_256
*1007 FILLER_15_263
*1008 FILLER_15_270
*1009 FILLER_15_277
*1010 FILLER_15_284
*1011 FILLER_15_291
*1012 FILLER_15_298
*1013 FILLER_15_305
*1014 FILLER_15_312
*1015 FILLER_15_319
*1016 FILLER_15_32
*1017 FILLER_15_326
*1018 FILLER_15_333
*1019 FILLER_15_340
*1020 FILLER_15_347
*1021 FILLER_15_351
*1022 FILLER_15_39
*1023 FILLER_15_4
*1024 FILLER_15_46
*1025 FILLER_15_53
*1026 FILLER_15_60
*1027 FILLER_15_67
*1028 FILLER_15_74
*1029 FILLER_15_81
*1030 FILLER_15_88
*1031 FILLER_15_95
*1032 FILLER_16_102
*1033 FILLER_16_109
*1034 FILLER_16_11
*1035 FILLER_16_116
*1036 FILLER_16_123
*1037 FILLER_16_134
*1038 FILLER_16_141
*1039 FILLER_16_148
*1040 FILLER_16_155
*1041 FILLER_16_162
*1042 FILLER_16_169
*1043 FILLER_16_176
*1044 FILLER_16_18
*1045 FILLER_16_183
*1046 FILLER_16_190
*1047 FILLER_16_197
*1048 FILLER_16_204
*1049 FILLER_16_211
*1050 FILLER_16_218
*1051 FILLER_16_225
*1052 FILLER_16_232
*1053 FILLER_16_239
*1054 FILLER_16_246
*1055 FILLER_16_25
*1056 FILLER_16_253
*1057 FILLER_16_260
*1058 FILLER_16_267
*1059 FILLER_16_274
*1060 FILLER_16_281
*1061 FILLER_16_288
*1062 FILLER_16_295
*1063 FILLER_16_302
*1064 FILLER_16_309
*1065 FILLER_16_316
*1066 FILLER_16_32
*1067 FILLER_16_323
*1068 FILLER_16_330
*1069 FILLER_16_337
*1070 FILLER_16_344
*1071 FILLER_16_351
*1072 FILLER_16_39
*1073 FILLER_16_4
*1074 FILLER_16_46
*1075 FILLER_16_53
*1076 FILLER_16_60
*1077 FILLER_16_67
*1078 FILLER_16_74
*1079 FILLER_16_81
*1080 FILLER_16_88
*1081 FILLER_16_95
*1082 FILLER_16_97
*1083 FILLER_17_11
*1084 FILLER_17_145
*1085 FILLER_17_155
*1086 FILLER_17_162
*1087 FILLER_17_169
*1088 FILLER_17_171
*1089 FILLER_17_186
*1090 FILLER_17_19
*1091 FILLER_17_196
*1092 FILLER_17_198
*1093 FILLER_17_208
*1094 FILLER_17_217
*1095 FILLER_17_224
*1096 FILLER_17_231
*1097 FILLER_17_238
*1098 FILLER_17_245
*1099 FILLER_17_252
*1100 FILLER_17_259
*1101 FILLER_17_26
*1102 FILLER_17_266
*1103 FILLER_17_273
*1104 FILLER_17_280
*1105 FILLER_17_287
*1106 FILLER_17_294
*1107 FILLER_17_301
*1108 FILLER_17_308
*1109 FILLER_17_315
*1110 FILLER_17_322
*1111 FILLER_17_329
*1112 FILLER_17_33
*1113 FILLER_17_336
*1114 FILLER_17_343
*1115 FILLER_17_350
*1116 FILLER_17_352
*1117 FILLER_17_4
*1118 FILLER_17_40
*1119 FILLER_17_47
*1120 FILLER_17_54
*1121 FILLER_17_61
*1122 FILLER_17_68
*1123 FILLER_17_75
*1124 FILLER_17_81
*1125 FILLER_17_85
*1126 FILLER_17_94
*1127 FILLER_17_99
*1128 FILLER_18_0
*1129 FILLER_18_114
*1130 FILLER_18_116
*1131 FILLER_18_14
*1132 FILLER_18_154
*1133 FILLER_18_21
*1134 FILLER_18_227
*1135 FILLER_18_234
*1136 FILLER_18_241
*1137 FILLER_18_248
*1138 FILLER_18_255
*1139 FILLER_18_262
*1140 FILLER_18_269
*1141 FILLER_18_276
*1142 FILLER_18_28
*1143 FILLER_18_283
*1144 FILLER_18_290
*1145 FILLER_18_297
*1146 FILLER_18_304
*1147 FILLER_18_311
*1148 FILLER_18_318
*1149 FILLER_18_325
*1150 FILLER_18_332
*1151 FILLER_18_339
*1152 FILLER_18_346
*1153 FILLER_18_35
*1154 FILLER_18_39
*1155 FILLER_18_46
*1156 FILLER_18_53
*1157 FILLER_18_60
*1158 FILLER_18_66
*1159 FILLER_18_7
*1160 FILLER_18_70
*1161 FILLER_18_77
*1162 FILLER_19_11
*1163 FILLER_19_18
*1164 FILLER_19_22
*1165 FILLER_19_239
*1166 FILLER_19_246
*1167 FILLER_19_253
*1168 FILLER_19_260
*1169 FILLER_19_267
*1170 FILLER_19_274
*1171 FILLER_19_281
*1172 FILLER_19_288
*1173 FILLER_19_295
*1174 FILLER_19_302
*1175 FILLER_19_309
*1176 FILLER_19_316
*1177 FILLER_19_323
*1178 FILLER_19_330
*1179 FILLER_19_337
*1180 FILLER_19_344
*1181 FILLER_19_351
*1182 FILLER_19_4
*1183 FILLER_19_60
*1184 FILLER_19_62
*1185 FILLER_19_76
*1186 FILLER_1_0
*1187 FILLER_1_105
*1188 FILLER_1_112
*1189 FILLER_1_119
*1190 FILLER_1_126
*1191 FILLER_1_133
*1192 FILLER_1_14
*1193 FILLER_1_140
*1194 FILLER_1_147
*1195 FILLER_1_154
*1196 FILLER_1_161
*1197 FILLER_1_168
*1198 FILLER_1_175
*1199 FILLER_1_182
*1200 FILLER_1_189
*1201 FILLER_1_196
*1202 FILLER_1_203
*1203 FILLER_1_21
*1204 FILLER_1_210
*1205 FILLER_1_217
*1206 FILLER_1_224
*1207 FILLER_1_231
*1208 FILLER_1_238
*1209 FILLER_1_245
*1210 FILLER_1_252
*1211 FILLER_1_259
*1212 FILLER_1_266
*1213 FILLER_1_273
*1214 FILLER_1_28
*1215 FILLER_1_280
*1216 FILLER_1_287
*1217 FILLER_1_294
*1218 FILLER_1_301
*1219 FILLER_1_308
*1220 FILLER_1_315
*1221 FILLER_1_322
*1222 FILLER_1_329
*1223 FILLER_1_336
*1224 FILLER_1_343
*1225 FILLER_1_35
*1226 FILLER_1_350
*1227 FILLER_1_352
*1228 FILLER_1_42
*1229 FILLER_1_49
*1230 FILLER_1_56
*1231 FILLER_1_63
*1232 FILLER_1_7
*1233 FILLER_1_70
*1234 FILLER_1_77
*1235 FILLER_1_84
*1236 FILLER_1_91
*1237 FILLER_1_98
*1238 FILLER_20_109
*1239 FILLER_20_15
*1240 FILLER_20_194
*1241 FILLER_20_22
*1242 FILLER_20_255
*1243 FILLER_20_262
*1244 FILLER_20_269
*1245 FILLER_20_276
*1246 FILLER_20_283
*1247 FILLER_20_29
*1248 FILLER_20_290
*1249 FILLER_20_297
*1250 FILLER_20_304
*1251 FILLER_20_311
*1252 FILLER_20_318
*1253 FILLER_20_325
*1254 FILLER_20_332
*1255 FILLER_20_339
*1256 FILLER_20_346
*1257 FILLER_20_72
*1258 FILLER_20_8
*1259 FILLER_21_16
*1260 FILLER_21_167
*1261 FILLER_21_169
*1262 FILLER_21_23
*1263 FILLER_21_251
*1264 FILLER_21_258
*1265 FILLER_21_265
*1266 FILLER_21_272
*1267 FILLER_21_279
*1268 FILLER_21_286
*1269 FILLER_21_293
*1270 FILLER_21_30
*1271 FILLER_21_300
*1272 FILLER_21_307
*1273 FILLER_21_314
*1274 FILLER_21_321
*1275 FILLER_21_328
*1276 FILLER_21_335
*1277 FILLER_21_342
*1278 FILLER_21_349
*1279 FILLER_21_4
*1280 FILLER_21_64
*1281 FILLER_21_76
*1282 FILLER_21_78
*1283 FILLER_21_9
*1284 FILLER_21_95
*1285 FILLER_22_177
*1286 FILLER_22_214
*1287 FILLER_22_253
*1288 FILLER_22_260
*1289 FILLER_22_267
*1290 FILLER_22_274
*1291 FILLER_22_281
*1292 FILLER_22_288
*1293 FILLER_22_295
*1294 FILLER_22_302
*1295 FILLER_22_309
*1296 FILLER_22_316
*1297 FILLER_22_323
*1298 FILLER_22_330
*1299 FILLER_22_337
*1300 FILLER_22_344
*1301 FILLER_22_351
*1302 FILLER_22_67
*1303 FILLER_22_8
*1304 FILLER_23_0
*1305 FILLER_23_126
*1306 FILLER_23_147
*1307 FILLER_23_179
*1308 FILLER_23_199
*1309 FILLER_23_253
*1310 FILLER_23_260
*1311 FILLER_23_267
*1312 FILLER_23_274
*1313 FILLER_23_281
*1314 FILLER_23_288
*1315 FILLER_23_295
*1316 FILLER_23_302
*1317 FILLER_23_309
*1318 FILLER_23_316
*1319 FILLER_23_323
*1320 FILLER_23_330
*1321 FILLER_23_337
*1322 FILLER_23_344
*1323 FILLER_23_351
*1324 FILLER_23_63
*1325 FILLER_23_65
*1326 FILLER_24_0
*1327 FILLER_24_132
*1328 FILLER_24_206
*1329 FILLER_24_252
*1330 FILLER_24_259
*1331 FILLER_24_266
*1332 FILLER_24_273
*1333 FILLER_24_280
*1334 FILLER_24_287
*1335 FILLER_24_294
*1336 FILLER_24_301
*1337 FILLER_24_308
*1338 FILLER_24_315
*1339 FILLER_24_322
*1340 FILLER_24_329
*1341 FILLER_24_336
*1342 FILLER_24_34
*1343 FILLER_24_343
*1344 FILLER_24_350
*1345 FILLER_24_352
*1346 FILLER_25_131
*1347 FILLER_25_171
*1348 FILLER_25_173
*1349 FILLER_25_210
*1350 FILLER_25_228
*1351 FILLER_25_230
*1352 FILLER_25_251
*1353 FILLER_25_258
*1354 FILLER_25_265
*1355 FILLER_25_272
*1356 FILLER_25_279
*1357 FILLER_25_286
*1358 FILLER_25_293
*1359 FILLER_25_300
*1360 FILLER_25_307
*1361 FILLER_25_314
*1362 FILLER_25_321
*1363 FILLER_25_328
*1364 FILLER_25_335
*1365 FILLER_25_342
*1366 FILLER_25_349
*1367 FILLER_25_4
*1368 FILLER_25_90
*1369 FILLER_26_12
*1370 FILLER_26_142
*1371 FILLER_26_171
*1372 FILLER_26_173
*1373 FILLER_26_192
*1374 FILLER_26_194
*1375 FILLER_26_248
*1376 FILLER_26_255
*1377 FILLER_26_262
*1378 FILLER_26_269
*1379 FILLER_26_276
*1380 FILLER_26_283
*1381 FILLER_26_290
*1382 FILLER_26_297
*1383 FILLER_26_304
*1384 FILLER_26_311
*1385 FILLER_26_318
*1386 FILLER_26_325
*1387 FILLER_26_332
*1388 FILLER_26_339
*1389 FILLER_26_346
*1390 FILLER_26_65
*1391 FILLER_27_0
*1392 FILLER_27_108
*1393 FILLER_27_191
*1394 FILLER_27_197
*1395 FILLER_27_251
*1396 FILLER_27_258
*1397 FILLER_27_265
*1398 FILLER_27_272
*1399 FILLER_27_279
*1400 FILLER_27_286
*1401 FILLER_27_29
*1402 FILLER_27_293
*1403 FILLER_27_300
*1404 FILLER_27_307
*1405 FILLER_27_314
*1406 FILLER_27_321
*1407 FILLER_27_328
*1408 FILLER_27_335
*1409 FILLER_27_342
*1410 FILLER_27_349
*1411 FILLER_27_73
*1412 FILLER_28_0
*1413 FILLER_28_146
*1414 FILLER_28_165
*1415 FILLER_28_167
*1416 FILLER_28_248
*1417 FILLER_28_255
*1418 FILLER_28_262
*1419 FILLER_28_269
*1420 FILLER_28_276
*1421 FILLER_28_283
*1422 FILLER_28_290
*1423 FILLER_28_297
*1424 FILLER_28_304
*1425 FILLER_28_311
*1426 FILLER_28_318
*1427 FILLER_28_325
*1428 FILLER_28_332
*1429 FILLER_28_339
*1430 FILLER_28_346
*1431 FILLER_29_196
*1432 FILLER_29_212
*1433 FILLER_29_232
*1434 FILLER_29_245
*1435 FILLER_29_252
*1436 FILLER_29_259
*1437 FILLER_29_266
*1438 FILLER_29_273
*1439 FILLER_29_280
*1440 FILLER_29_287
*1441 FILLER_29_294
*1442 FILLER_29_301
*1443 FILLER_29_308
*1444 FILLER_29_315
*1445 FILLER_29_322
*1446 FILLER_29_329
*1447 FILLER_29_336
*1448 FILLER_29_343
*1449 FILLER_29_350
*1450 FILLER_29_352
*1451 FILLER_29_67
*1452 FILLER_2_0
*1453 FILLER_2_105
*1454 FILLER_2_112
*1455 FILLER_2_119
*1456 FILLER_2_126
*1457 FILLER_2_133
*1458 FILLER_2_14
*1459 FILLER_2_140
*1460 FILLER_2_147
*1461 FILLER_2_154
*1462 FILLER_2_161
*1463 FILLER_2_168
*1464 FILLER_2_175
*1465 FILLER_2_182
*1466 FILLER_2_189
*1467 FILLER_2_196
*1468 FILLER_2_203
*1469 FILLER_2_21
*1470 FILLER_2_210
*1471 FILLER_2_217
*1472 FILLER_2_224
*1473 FILLER_2_231
*1474 FILLER_2_238
*1475 FILLER_2_245
*1476 FILLER_2_252
*1477 FILLER_2_259
*1478 FILLER_2_266
*1479 FILLER_2_273
*1480 FILLER_2_28
*1481 FILLER_2_280
*1482 FILLER_2_287
*1483 FILLER_2_294
*1484 FILLER_2_301
*1485 FILLER_2_308
*1486 FILLER_2_315
*1487 FILLER_2_322
*1488 FILLER_2_329
*1489 FILLER_2_336
*1490 FILLER_2_343
*1491 FILLER_2_35
*1492 FILLER_2_350
*1493 FILLER_2_352
*1494 FILLER_2_42
*1495 FILLER_2_49
*1496 FILLER_2_56
*1497 FILLER_2_63
*1498 FILLER_2_7
*1499 FILLER_2_70
*1500 FILLER_2_77
*1501 FILLER_2_84
*1502 FILLER_2_91
*1503 FILLER_2_98
*1504 FILLER_30_0
*1505 FILLER_30_116
*1506 FILLER_30_174
*1507 FILLER_30_248
*1508 FILLER_30_255
*1509 FILLER_30_262
*1510 FILLER_30_269
*1511 FILLER_30_276
*1512 FILLER_30_283
*1513 FILLER_30_290
*1514 FILLER_30_297
*1515 FILLER_30_304
*1516 FILLER_30_311
*1517 FILLER_30_318
*1518 FILLER_30_325
*1519 FILLER_30_332
*1520 FILLER_30_339
*1521 FILLER_30_346
*1522 FILLER_30_80
*1523 FILLER_31_0
*1524 FILLER_31_214
*1525 FILLER_31_241
*1526 FILLER_31_248
*1527 FILLER_31_255
*1528 FILLER_31_262
*1529 FILLER_31_269
*1530 FILLER_31_276
*1531 FILLER_31_283
*1532 FILLER_31_290
*1533 FILLER_31_297
*1534 FILLER_31_304
*1535 FILLER_31_311
*1536 FILLER_31_318
*1537 FILLER_31_325
*1538 FILLER_31_332
*1539 FILLER_31_339
*1540 FILLER_31_346
*1541 FILLER_31_61
*1542 FILLER_31_72
*1543 FILLER_31_89
*1544 FILLER_32_0
*1545 FILLER_32_104
*1546 FILLER_32_158
*1547 FILLER_32_188
*1548 FILLER_32_251
*1549 FILLER_32_258
*1550 FILLER_32_265
*1551 FILLER_32_272
*1552 FILLER_32_279
*1553 FILLER_32_286
*1554 FILLER_32_293
*1555 FILLER_32_300
*1556 FILLER_32_307
*1557 FILLER_32_314
*1558 FILLER_32_321
*1559 FILLER_32_328
*1560 FILLER_32_335
*1561 FILLER_32_342
*1562 FILLER_32_349
*1563 FILLER_32_38
*1564 FILLER_32_66
*1565 FILLER_33_172
*1566 FILLER_33_241
*1567 FILLER_33_248
*1568 FILLER_33_255
*1569 FILLER_33_262
*1570 FILLER_33_269
*1571 FILLER_33_276
*1572 FILLER_33_283
*1573 FILLER_33_290
*1574 FILLER_33_297
*1575 FILLER_33_304
*1576 FILLER_33_311
*1577 FILLER_33_318
*1578 FILLER_33_325
*1579 FILLER_33_332
*1580 FILLER_33_339
*1581 FILLER_33_346
*1582 FILLER_33_54
*1583 FILLER_34_233
*1584 FILLER_34_240
*1585 FILLER_34_247
*1586 FILLER_34_254
*1587 FILLER_34_261
*1588 FILLER_34_268
*1589 FILLER_34_275
*1590 FILLER_34_282
*1591 FILLER_34_289
*1592 FILLER_34_296
*1593 FILLER_34_303
*1594 FILLER_34_310
*1595 FILLER_34_317
*1596 FILLER_34_324
*1597 FILLER_34_331
*1598 FILLER_34_338
*1599 FILLER_34_345
*1600 FILLER_34_352
*1601 FILLER_34_50
*1602 FILLER_35_122
*1603 FILLER_35_164
*1604 FILLER_35_201
*1605 FILLER_35_243
*1606 FILLER_35_250
*1607 FILLER_35_257
*1608 FILLER_35_264
*1609 FILLER_35_271
*1610 FILLER_35_278
*1611 FILLER_35_285
*1612 FILLER_35_292
*1613 FILLER_35_299
*1614 FILLER_35_306
*1615 FILLER_35_313
*1616 FILLER_35_320
*1617 FILLER_35_327
*1618 FILLER_35_334
*1619 FILLER_35_341
*1620 FILLER_35_348
*1621 FILLER_35_352
*1622 FILLER_35_52
*1623 FILLER_35_78
*1624 FILLER_35_94
*1625 FILLER_36_0
*1626 FILLER_36_186
*1627 FILLER_36_223
*1628 FILLER_36_230
*1629 FILLER_36_237
*1630 FILLER_36_244
*1631 FILLER_36_251
*1632 FILLER_36_258
*1633 FILLER_36_265
*1634 FILLER_36_272
*1635 FILLER_36_279
*1636 FILLER_36_286
*1637 FILLER_36_293
*1638 FILLER_36_300
*1639 FILLER_36_307
*1640 FILLER_36_314
*1641 FILLER_36_321
*1642 FILLER_36_328
*1643 FILLER_36_335
*1644 FILLER_36_342
*1645 FILLER_36_349
*1646 FILLER_36_35
*1647 FILLER_36_76
*1648 FILLER_37_216
*1649 FILLER_37_223
*1650 FILLER_37_230
*1651 FILLER_37_237
*1652 FILLER_37_244
*1653 FILLER_37_251
*1654 FILLER_37_258
*1655 FILLER_37_265
*1656 FILLER_37_272
*1657 FILLER_37_279
*1658 FILLER_37_286
*1659 FILLER_37_293
*1660 FILLER_37_300
*1661 FILLER_37_307
*1662 FILLER_37_314
*1663 FILLER_37_321
*1664 FILLER_37_328
*1665 FILLER_37_335
*1666 FILLER_37_342
*1667 FILLER_37_349
*1668 FILLER_37_53
*1669 FILLER_38_151
*1670 FILLER_38_161
*1671 FILLER_38_185
*1672 FILLER_38_208
*1673 FILLER_38_215
*1674 FILLER_38_222
*1675 FILLER_38_229
*1676 FILLER_38_236
*1677 FILLER_38_243
*1678 FILLER_38_250
*1679 FILLER_38_257
*1680 FILLER_38_264
*1681 FILLER_38_271
*1682 FILLER_38_278
*1683 FILLER_38_285
*1684 FILLER_38_292
*1685 FILLER_38_299
*1686 FILLER_38_306
*1687 FILLER_38_313
*1688 FILLER_38_320
*1689 FILLER_38_327
*1690 FILLER_38_334
*1691 FILLER_38_341
*1692 FILLER_38_348
*1693 FILLER_38_352
*1694 FILLER_39_171
*1695 FILLER_39_187
*1696 FILLER_39_200
*1697 FILLER_39_207
*1698 FILLER_39_214
*1699 FILLER_39_221
*1700 FILLER_39_228
*1701 FILLER_39_235
*1702 FILLER_39_242
*1703 FILLER_39_249
*1704 FILLER_39_256
*1705 FILLER_39_263
*1706 FILLER_39_27
*1707 FILLER_39_270